@<TRIPOS>MOLECULE
AQ4
   52    54     1     0     0
SMALL
bcc


@<TRIPOS>ATOM
      1 C1          29.1130    -3.4580    53.1250 c1       325 AQ4      -0.131500
      2 C2          28.7590    -2.2160    53.2820 cg       325 AQ4      -0.126000
      3 C3          28.3300    -0.9890    53.4470 ca       325 AQ4       0.036000
      4 C4          26.9120    -0.7500    53.5200 ca       325 AQ4      -0.087000
      5 C5          26.4110     0.5050    53.6240 ca       325 AQ4       0.130600
      6 C20         27.2740     1.6610    53.5350 ca       325 AQ4      -0.159000
      7 C21         28.6140     1.5110    53.5060 ca       325 AQ4      -0.117000
      8 C22         29.3260     0.1620    53.6200 ca       325 AQ4      -0.118000
      9 N1          25.0330     0.7230    53.8060 nh       325 AQ4      -0.725300
     10 H1          24.6650     1.6420    53.5210 hn       325 AQ4       0.434800
     11 C6          24.1460    -0.1590    54.4270 ca       325 AQ4       0.702200
     12 C7          22.7410    -0.0070    54.2380 ca       325 AQ4      -0.288600
     13 C8          22.1440     0.9720    53.4050 ca       325 AQ4      -0.094000
     14 C18         21.9220    -0.9180    54.9300 ca       325 AQ4       0.439600
     15 C9          20.7680     1.0170    53.2580 ca       325 AQ4       0.066100
     16 C13         19.9540     0.0610    53.9260 ca       325 AQ4       0.102100
     17 C17         20.5250    -0.8690    54.7710 ca       325 AQ4      -0.187300
     18 N2          22.4870    -1.8760    55.7360 nb       325 AQ4      -0.716000
     19 C19         23.7840    -1.9320    55.8440 ca       325 AQ4       0.672900
     20 N3          24.6380    -1.0880    55.2130 nb       325 AQ4      -0.766000
     21 O1          20.1850     2.0050    52.4730 os       325 AQ4      -0.345900
     22 C10         18.7780     2.0000    52.0760 c3       325 AQ4       0.122400
     23 C11         18.4210     3.4310    51.6300 c3       325 AQ4       0.121400
     24 O2          17.0760     3.6940    52.0260 os       325 AQ4      -0.424600
     25 C12         16.4850     4.8050    51.3710 c3       325 AQ4       0.116700
     26 O3          18.5840    -0.0380    53.7830 os       325 AQ4      -0.341900
     27 C14         17.7910    -1.1300    53.2480 c3       325 AQ4       0.124400
     28 C15         17.9810    -2.2830    54.2440 c3       325 AQ4       0.095400
     29 O4          17.7250    -3.4630    53.5030 os       325 AQ4      -0.421600
     30 C16         16.6940    -4.2610    54.0610 c3       325 AQ4       0.117700
     31 H4          26.2260    -1.5970    53.4910 ha       325 AQ4       0.161000
     32 H9          22.7700     1.6920    52.8780 ha       325 AQ4       0.150000
     33 H10         19.8910    -1.5680    55.3170 ha       325 AQ4       0.170000
     34 H11         24.2100    -2.7060    56.4820 h5       325 AQ4       0.055100
     35 H12         18.6260     1.3040    51.2510 h1       325 AQ4       0.061700
     36 H13         18.1540     1.7060    52.9200 h1       325 AQ4       0.061700
     37 H14         19.0930     4.1450    52.1060 h1       325 AQ4       0.045700
     38 H15         18.5100     3.5140    50.5470 h1       325 AQ4       0.045700
     39 H16         15.4640     4.9370    51.7280 h1       325 AQ4       0.034367
     40 H17         16.4730     4.6290    50.2950 h1       325 AQ4       0.034367
     41 H18         17.0630     5.7040    51.5860 h1       325 AQ4       0.034367
     42 H19         16.7400    -0.8460    53.1860 h1       325 AQ4       0.075700
     43 H20         18.1500    -1.4150    52.2590 h1       325 AQ4       0.075700
     44 H21         19.0000    -2.2890    54.6310 h1       325 AQ4       0.039200
     45 H22         17.2780    -2.1920    55.0720 h1       325 AQ4       0.039200
     46 H23         16.5480    -5.1490    53.4460 h1       325 AQ4       0.035367
     47 H24         15.7680    -3.6870    54.0950 h1       325 AQ4       0.035367
     48 H25         16.9730    -4.5610    55.0710 h1       325 AQ4       0.035367
     49 H           29.3830    -4.4070    53.0050 ha         1 UNL       0.167500
     50 H3          30.3370     0.0440    53.7900 ha         1 UNL       0.142000
     51 H5          29.1940     2.3580    53.4000 ha         1 UNL       0.137000
     52 H6          26.8630     2.6070    53.4930 ha         1 UNL       0.133000
@<TRIPOS>BOND
     1     1     2 3   
     2     1    49 1   
     3     2     3 1   
     4     3     4 ar  
     5     3     8 ar  
     6     4     5 ar  
     7     4    31 1   
     8     5     6 ar  
     9     5     9 1   
    10     6     7 ar  
    11     6    52 1   
    12     7     8 ar  
    13     7    51 1   
    14     8    50 1   
    15     9    10 1   
    16     9    11 1   
    17    11    12 ar  
    18    11    20 ar  
    19    12    13 ar  
    20    12    14 ar  
    21    13    15 ar  
    22    13    32 1   
    23    14    17 ar  
    24    14    18 ar  
    25    15    16 ar  
    26    15    21 1   
    27    16    17 ar  
    28    16    26 1   
    29    17    33 1   
    30    18    19 ar  
    31    19    20 ar  
    32    19    34 1   
    33    21    22 1   
    34    22    23 1   
    35    22    35 1   
    36    22    36 1   
    37    23    24 1   
    38    23    37 1   
    39    23    38 1   
    40    24    25 1   
    41    25    39 1   
    42    25    40 1   
    43    25    41 1   
    44    26    27 1   
    45    27    28 1   
    46    27    42 1   
    47    27    43 1   
    48    28    29 1   
    49    28    44 1   
    50    28    45 1   
    51    29    30 1   
    52    30    46 1   
    53    30    47 1   
    54    30    48 1   
@<TRIPOS>SUBSTRUCTURE
     1 AQ4         1 TEMP              0 ****  ****    0 ROOT
