@<TRIPOS>MOLECULE
1N1
   59    62     1     0     0
SMALL
bcc


@<TRIPOS>ATOM
      1 C1          11.2020   -34.2970    -9.2250 cc         1 1N1       0.398200
      2 C2          10.4160   -35.3760    -9.1140 cd         1 1N1      -0.370000
      3 C           12.5600   -35.5720    -7.9450 cd         1 1N1       0.591300
      4 N1          12.3830   -34.3970    -8.5780 nc         1 1N1      -0.704000
      5 S           11.1750   -36.5390    -8.1730 ss         1 1N1       0.155700
      6 N           13.6470   -35.8860    -7.2350 nh         1 1N1      -0.814600
      7 C11         13.6780   -36.8630    -6.3250 ca         1 1N1       0.696200
      8 C12         14.8530   -37.5690    -6.0940 ca         1 1N1      -0.454600
      9 C13         14.8260   -38.5870    -5.1350 ca         1 1N1       0.701200
     10 N3          13.6690   -38.8660    -4.5020 nb         1 1N1      -0.775000
     11 C14         12.5460   -38.1700    -4.7390 ca         1 1N1       0.723300
     12 C15         11.2600   -38.4910    -3.9700 c3         1 1N1      -0.139400
     13 N4          12.5630   -37.1800    -5.6430 nb         1 1N1      -0.800000
     14 N5          15.9400   -39.3870    -4.8020 nh         1 1N1      -0.738300
     15 C16         16.4560   -39.2890    -3.4100 c3         1 1N1       0.194300
     16 C17         17.9550   -39.0910    -3.4370 c3         1 1N1       0.161300
     17 N6          18.5810   -40.1280    -4.2690 n3         1 1N1      -0.732600
     18 C18         18.1030   -40.1180    -5.6720 c3         1 1N1       0.161300
     19 C19         16.5900   -40.3230    -5.7350 c3         1 1N1       0.194300
     20 C20         20.0320   -39.8250    -4.2000 c3         1 1N1       0.138800
     21 C21         20.6280   -39.5100    -5.5800 c3         1 1N1       0.089400
     22 O1          20.3380   -38.1310    -5.9070 oh         1 1N1      -0.596800
     23 H3          19.9170   -37.6540    -5.0710 ho         1 1N1       0.398000
     24 C3           9.0320   -35.5580    -9.7200 c          1 1N1       0.719700
     25 N2           8.5240   -34.4930   -10.3410 n          1 1N1      -0.465100
     26 H2           9.0780   -33.5780   -10.3810 hn         1 1N1       0.318500
     27 O            8.4380   -36.6290    -9.5950 o          1 1N1      -0.591100
     28 C4           7.3070   -34.5740   -10.9190 ca         1 1N1       0.050600
     29 C9           6.1620   -34.1200   -10.2400 ca         1 1N1      -0.043300
     30 C8           4.9030   -34.2170   -10.8450 ca         1 1N1      -0.123000
     31 C10          6.2870   -33.5470    -8.8300 c3         1 1N1      -0.063800
     32 C7           4.7780   -34.7400   -12.1280 ca         1 1N1      -0.126000
     33 C6           5.9210   -35.1830   -12.8090 ca         1 1N1      -0.119000
     34 C5           7.1750   -35.1030   -12.1970 ca         1 1N1      -0.008600
     35 Cl           8.5970   -35.6430   -13.0270 cl         1 1N1      -0.102400
     36 H4          10.9120   -33.4120    -9.7910 h4         1 1N1       0.045100
     37 H5          14.5420   -35.3240    -7.4050 hn         1 1N1       0.463800
     38 H6          15.7660   -37.3370    -6.6420 ha         1 1N1       0.156000
     39 H7          10.4630   -37.8240    -4.2990 hc         1 1N1       0.066367
     40 H8          11.4310   -38.3530    -2.9020 hc         1 1N1       0.066367
     41 H9          10.9700   -39.5240    -4.1610 hc         1 1N1       0.066367
     42 H10         15.9870   -38.4420    -2.9080 h1         1 1N1       0.054700
     43 H11         16.2210   -40.2070    -2.8710 h1         1 1N1       0.054700
     44 H12         18.1820   -38.1090    -3.8520 h1         1 1N1       0.046950
     45 H13         18.3470   -39.1570    -2.4220 h1         1 1N1       0.046950
     46 H14         18.3520   -39.1590    -6.1270 h1         1 1N1       0.046950
     47 H15         18.5950   -40.9200    -6.2220 h1         1 1N1       0.046950
     48 H16         16.3480   -41.3480    -5.4520 h1         1 1N1       0.054700
     49 H17         16.2370   -40.1320    -6.7490 h1         1 1N1       0.054700
     50 H18         20.1790   -38.9630    -3.5500 h1         1 1N1       0.055700
     51 H19         20.5510   -40.6880    -3.7830 h1         1 1N1       0.055700
     52 H20         21.7070   -39.6620    -5.5570 h1         1 1N1       0.050700
     53 H21         20.1840   -40.1660    -6.3290 h1         1 1N1       0.050700
     54 H22          4.0160   -33.8810   -10.3080 ha         1 1N1       0.138000
     55 H23          5.3020   -33.2500    -8.4690 hc         1 1N1       0.056367
     56 H24          6.9440   -32.6780    -8.8480 hc         1 1N1       0.056367
     57 H25          6.7040   -34.3040    -8.1650 hc         1 1N1       0.056367
     58 H26          3.7980   -34.8050   -12.6010 ha         1 1N1       0.138000
     59 H27          5.8310   -35.5900   -13.8160 ha         1 1N1       0.147000
@<TRIPOS>BOND
     1     1     2 2   
     2     1     4 1   
     3     1    36 1   
     4     2     5 1   
     5     2    24 1   
     6     3     4 2   
     7     3     5 1   
     8     3     6 1   
     9     6     7 1   
    10     6    37 1   
    11     7     8 ar  
    12     7    13 ar  
    13     8     9 ar  
    14     8    38 1   
    15     9    10 ar  
    16     9    14 1   
    17    10    11 ar  
    18    11    12 1   
    19    11    13 ar  
    20    12    39 1   
    21    12    40 1   
    22    12    41 1   
    23    14    15 1   
    24    14    19 1   
    25    15    16 1   
    26    15    42 1   
    27    15    43 1   
    28    16    17 1   
    29    16    44 1   
    30    16    45 1   
    31    17    18 1   
    32    17    20 1   
    33    18    19 1   
    34    18    46 1   
    35    18    47 1   
    36    19    48 1   
    37    19    49 1   
    38    20    21 1   
    39    20    50 1   
    40    20    51 1   
    41    21    22 1   
    42    21    52 1   
    43    21    53 1   
    44    22    23 1   
    45    24    25 1   
    46    24    27 2   
    47    25    26 1   
    48    25    28 1   
    49    28    29 ar  
    50    28    34 ar  
    51    29    30 ar  
    52    29    31 1   
    53    30    32 ar  
    54    30    54 1   
    55    31    55 1   
    56    31    56 1   
    57    31    57 1   
    58    32    33 ar  
    59    32    58 1   
    60    33    34 ar  
    61    33    59 1   
    62    34    35 1   
@<TRIPOS>SUBSTRUCTURE
     1 1N1         1 TEMP              0 ****  ****    0 ROOT
