Molecule-1
  DSViewer          3D                             0

 21 24  0  0  0  0  0  0  0  0999 V2000
   -0.0115    1.4895    0.0290 C   0  0  3  0  0  0  0  0  0  1
    0.0307   -0.0246    0.0351 C   0  0  3  0  0  0  0  0  0  2
    1.4659    1.9709   -0.0014 C   0  0  3  0  0  0  0  0  0  3
   -0.5742    2.1420   -1.2381 C   0  0  0  0  0  0  0  0  0  4
    0.6841   -0.4475    1.3571 C   0  0  3  0  0  0  0  0  0  5
   -1.3711   -0.6324   -0.0122 C   0  0  0  0  0  0  0  0  0  6
    1.3457    3.4486   -0.3562 C   0  0  3  0  0  0  0  0  0  7
    2.0958    1.6377    1.3349 C   0  0  0  0  0  0  0  0  0  8
    2.2220    1.2364   -1.1103 C   0  0  0  0  0  0  0  0  0  9
    0.0556    3.5615   -1.2067 C   0  0  3  0  0  0  0  0  0 10
    0.6508   -1.9411    1.4981 C   0  0  0  0  0  0  0  0  0 11
    2.0969    0.1040    1.4821 C   0  0  0  0  0  0  0  0  0 12
   -1.2299   -2.1440   -0.1892 C   0  0  0  0  0  0  0  0  0 13
    2.4794    3.8688   -1.1179 O   0  0  0  0  0  0  0  0  0 14
   -0.8506    4.4869   -0.6028 O   0  0  0  0  0  0  0  0  0 15
   -0.2436   -2.7195    0.7930 C   0  0  0  0  0  0  0  0  0 16
    1.5513   -2.5398    2.3692 C   0  0  0  0  0  0  0  0  0 17
   -0.2423   -4.0963    0.9724 C   0  0  0  0  0  0  0  0  0 18
    1.5559   -3.9070    2.5442 C   0  0  0  0  0  0  0  0  0 19
    0.6519   -4.6932    1.8438 C   0  0  0  0  0  0  0  0  0 20
    0.6447   -6.0416    2.0127 O   0  0  0  0  0  0  0  0  0 21
  1  2  1  0  0  0
  1  3  1  0  0  0
  1  4  1  0  0  0
  2  5  1  0  0  0
  2  6  1  0  0  0
  3  7  1  0  0  0
  3  8  1  0  0  0
  3  9  1  0  0  0
  4 10  1  0  0  0
  5 11  1  0  0  0
  5 12  1  0  0  0
  6 13  1  0  0  0
  7 14  1  0  0  0
 10 15  1  0  0  0
 11 16  2  0  0  0
 11 17  1  0  0  0
 16 18  1  0  0  0
 17 19  2  0  0  0
 18 20  2  0  0  0
 20 21  1  0  0  0
  7 10  1  0  0  0
  8 12  1  0  0  0
 13 16  1  0  0  0
 19 20  1  0  0  0
M  END
