MFCD00011663
  DSViewer          3D                             0

 45 47  0  0  0  0  0  0  0  0999 V2000
   -0.0178    1.4637    0.0101 C   0  0  0  0  0  0  0  0  0  1
    0.0021   -0.0041    0.0020 C   0  0  0  0  0  0  0  0  0  2
    1.2433    2.2149    0.0021 C   0  0  0  0  0  0  0  0  0  3
   -1.2537    2.1550    0.0197 C   0  0  0  0  0  0  0  0  0  4
   -0.6037   -0.7067   -1.0446 C   0  0  0  0  0  0  0  0  0  5
    0.6345   -0.7044    1.0424 C   0  0  0  0  0  0  0  0  0  6
    1.5451    3.0877    1.0525 C   0  0  0  0  0  0  0  0  0  7
    2.1510    2.0537   -1.0576 C   0  0  0  0  0  0  0  0  0  8
   -2.4533    1.4298    0.0215 C   0  0  0  0  0  0  0  0  0  9
   -1.2635    3.5647    0.0333 C   0  0  0  0  0  0  0  0  0 10
   -0.5793   -2.0985   -1.0428 C   0  0  0  0  0  0  0  0  0 11
    0.6567   -2.0686    1.0411 C   0  0  0  0  0  0  0  0  0 12
    2.7436    3.7954    1.0354 C   0  0  0  0  0  0  0  0  0 13
    3.3249    2.7489   -1.0713 C   0  0  0  0  0  0  0  0  0 14
   -3.6658    2.1064    0.0313 C   0  0  0  0  0  0  0  0  0 15
   -2.4285    4.2561    0.0436 C   0  0  0  0  0  0  0  0  0 16
    0.0535   -2.7819    0.0102 C   0  0  0  0  0  0  0  0  0 17
   -1.2145   -2.8523   -2.1396 C   0  0  0  0  0  0  0  0  0 18
    3.6368    3.6251   -0.0368 C   0  0  0  0  0  0  0  0  0 19
    3.0745    4.7193    2.1360 C   0  0  0  0  0  0  0  0  0 20
   -3.6609    3.5715    0.0398 C   0  0  0  0  0  0  0  0  0 21
   -4.9350    1.3640    0.0338 C   0  0  0  0  0  0  0  0  0 22
    0.0805   -4.1355    0.0184 O   0  0  0  0  0  0  0  0  0 23
   -1.8205   -2.1938   -3.1470 O   0  0  0  0  0  0  0  0  0 24
   -1.1914   -4.0671   -2.1350 O   0  0  0  0  0  0  0  0  0 25
    4.8041    4.3107   -0.0600 O   0  0  0  0  0  0  0  0  0 26
    2.2157    4.8802    3.1617 O   0  0  0  0  0  0  0  0  0 27
    4.1215    5.3355    2.1179 O   0  0  0  0  0  0  0  0  0 28
   -4.7133    4.1932    0.0482 O   0  0  0  0  0  0  0  0  0 29
   -6.1062    2.0314    0.0435 O   0  0  0  0  0  0  0  0  0 30
   -4.9282    0.1485    0.0272 O   0  0  0  0  0  0  0  0  0 31
   -1.0516   -0.2123   -1.7896 H   0  0  0  0  0  0  0  0  0  0
    1.0707   -0.2005    1.7879 H   0  0  0  0  0  0  0  0  0  0
    0.9038    3.2026    1.8111 H   0  0  0  0  0  0  0  0  0  0
    1.9357    1.4262   -1.8059 H   0  0  0  0  0  0  0  0  0  0
   -2.4359    0.4300    0.0158 H   0  0  0  0  0  0  0  0  0  0
   -0.3962    4.0625    0.0354 H   0  0  0  0  0  0  0  0  0  0
    1.1094   -2.5588    1.7859 H   0  0  0  0  0  0  0  0  0  0
    3.9652    2.6278   -1.8298 H   0  0  0  0  0  0  0  0  0  0
   -2.4142    5.2559    0.0539 H   0  0  0  0  0  0  0  0  0  0
    0.5661   -4.4548    0.8321 H   0  0  0  0  0  0  0  0  0  0
   -2.1947   -2.8529   -3.7992 H   0  0  0  0  0  0  0  0  0  0
    5.3146    4.0727   -0.8862 H   0  0  0  0  0  0  0  0  0  0
    2.5940    5.5370    3.8139 H   0  0  0  0  0  0  0  0  0  0
   -6.8629    1.3777    0.0438 H   0  0  0  0  0  0  0  0  0  0
  1  2  1  0  0  0
  1  3  1  0  0  0
  1  4  2  0  0  0
  2  5  4  0  0  0
  2  6  4  0  0  0
  3  7  4  0  0  0
  3  8  4  0  0  0
  4  9  1  0  0  0
  4 10  1  0  0  0
  5 11  4  0  0  0
  6 12  4  0  0  0
  7 13  4  0  0  0
  8 14  4  0  0  0
  9 15  2  0  0  0
 10 16  2  0  0  0
 11 17  4  0  0  0
 11 18  1  0  0  0
 12 17  4  0  0  0
 13 19  4  0  0  0
 13 20  1  0  0  0
 14 19  4  0  0  0
 15 21  1  0  0  0
 15 22  1  0  0  0
 16 21  1  0  0  0
 17 23  1  0  0  0
 18 24  1  0  0  0
 18 25  2  0  0  0
 19 26  1  0  0  0
 20 27  1  0  0  0
 20 28  2  0  0  0
 21 29  2  0  0  0
 22 30  1  0  0  0
 22 31  2  0  0  0
  5 32  1  0  0  0
  6 33  1  0  0  0
  7 34  1  0  0  0
  8 35  1  0  0  0
  9 36  1  0  0  0
 10 37  1  0  0  0
 12 38  1  0  0  0
 14 39  1  0  0  0
 16 40  1  0  0  0
 23 41  1  0  0  0
 24 42  1  0  0  0
 26 43  1  0  0  0
 27 44  1  0  0  0
 30 45  1  0  0  0
M  END
