CHEMBL56142
  DSViewer          3D                             0

 55 58  0  0  0  0  0  0  0  0999 V2000
    0.0397    1.4273    0.0637 C   0  0
    0.1528    0.0030    0.0376 O   0  0
    0.6122   -0.5582   -1.1111 C   0  0
    0.9479    0.2478   -2.1764 C   0  0
    1.4211   -0.3334   -3.3590 C   0  0
    1.5472   -1.7424   -3.4408 C   0  0
    1.1991   -2.5392   -2.3437 C   0  0
    0.7449   -1.9510   -1.1974 C   0  0
    0.4128   -2.7256   -0.1302 O   0  0
    0.5699   -4.1380   -0.2798 C   0  0
    0.1497   -4.8377    1.0143 C   0  0
   -1.2885   -4.6359    1.2354 N   0  0
   -1.6585   -5.1658    2.5533 C   0  0
   -3.1385   -4.8857    2.8227 C   0  0
   -3.9856   -5.5636    1.7420 C   0  0
   -3.5403   -5.0585    0.3666 C   0  0
   -2.0454   -5.3322    0.1882 C   0  0
    2.0287   -2.3006   -4.6489 C   0  0
    2.3371   -1.4766   -5.6419 N   0  0
    2.2029   -0.1656   -5.5197 C   0  0
    1.7621    0.4075   -4.4252 N   0  0
    2.1740   -3.6660   -4.7902 N   0  0
    2.7472   -4.1919   -5.9529 C   0  0
    3.7405   -3.4856   -6.6194 C   0  0
    4.3057   -4.0063   -7.7669 C   0  0
    3.8832   -5.2318   -8.2537 C   0  0
    2.8926   -5.9384   -7.5909 C   0  0
    2.3281   -5.4231   -6.4391 C   0  0
    2.3649   -7.4746   -8.2035 Cl  0  0
    4.4373   -5.7389   -9.3766 F   0  0
    1.0195    1.8728   -0.1085 H   0  0
   -0.6489    1.7515   -0.7166 H   0  0
   -0.3376    1.7441    1.0360 H   0  0
    0.8465    1.3203   -2.1001 H   0  0
    1.2936   -3.6135   -2.4016 H   0  0
   -0.0548   -4.4881   -1.1015 H   0  0
    1.6139   -4.3667   -0.4941 H   0  0
    0.3589   -5.9045    0.9350 H   0  0
    0.7083   -4.4192    1.8516 H   0  0
   -1.4830   -6.2414    2.5743 H   0  0
   -1.0525   -4.6847    3.3210 H   0  0
   -3.4117   -5.2814    3.8009 H   0  0
   -3.3150   -3.8102    2.8022 H   0  0
   -3.8486   -6.6436    1.7955 H   0  0
   -5.0368   -5.3203    1.8968 H   0  0
   -4.1007   -5.5777   -0.4109 H   0  0
   -3.7252   -3.9866    0.2951 H   0  0
   -1.7251   -4.9739   -0.7902 H   0  0
   -1.8617   -6.4042    0.2596 H   0  0
    2.4683    0.4605   -6.3587 H   0  0
    1.8787   -4.2609   -4.0832 H   0  0
    4.0703   -2.5295   -6.2406 H   0  0
    5.0777   -3.4570   -8.2852 H   0  0
    1.5589   -5.9757   -5.9201 H   0  0
   -1.4978   -3.6495    1.2009 H   0  0
  1  2  1  0  0  0
  1 31  1  0  0  0
  1 32  1  0  0  0
  1 33  1  0  0  0
  2  3  1  0  0  0
  3  8  4  0  0  0
  3  4  4  0  0  0
  4  5  4  0  0  0
  4 34  1  0  0  0
  5 21  4  0  0  0
  5  6  4  0  0  0
  6  7  4  0  0  0
  6 18  4  0  0  0
  7  8  4  0  0  0
  7 35  1  0  0  0
  8  9  1  0  0  0
  9 10  1  0  0  0
 10 11  1  0  0  0
 10 36  1  0  0  0
 10 37  1  0  0  0
 11 12  1  0  0  0
 11 38  1  0  0  0
 11 39  1  0  0  0
 12 17  1  0  0  0
 12 13  1  0  0  0
 12 55  1  0  0  0
 13 14  1  0  0  0
 13 40  1  0  0  0
 13 41  1  0  0  0
 14 15  1  0  0  0
 14 42  1  0  0  0
 14 43  1  0  0  0
 15 16  1  0  0  0
 15 44  1  0  0  0
 15 45  1  0  0  0
 16 17  1  0  0  0
 16 46  1  0  0  0
 16 47  1  0  0  0
 17 48  1  0  0  0
 17 49  1  0  0  0
 18 19  4  0  0  0
 18 22  1  0  0  0
 19 20  4  0  0  0
 20 21  4  0  0  0
 20 50  1  0  0  0
 22 23  1  0  0  0
 22 51  1  0  0  0
 23 28  4  0  0  0
 23 24  4  0  0  0
 24 25  4  0  0  0
 24 52  1  0  0  0
 25 26  4  0  0  0
 25 53  1  0  0  0
 26 27  4  0  0  0
 26 30  1  0  0  0
 27 28  4  0  0  0
 27 29  1  0  0  0
 28 54  1  0  0  0
M  END
$$$$
CHEMBL342828
  SciTegic01042610103D

 55 58  0  0  0  0            999 V2000
   12.8809   -1.4439   -0.8295 C   0  0
   11.8252   -0.5534   -0.8146 C   0  0
   11.9141    0.6150   -0.0687 C   0  0
   13.0655    0.8842    0.6604 C   0  0
   14.1181   -0.0107    0.6414 C   0  0
   14.0257   -1.1738   -0.1030 C   0  0
   15.6864    0.3544    1.6329 Br  0  0
   10.8475    1.5182   -0.0522 N   0  0
    9.5517    1.0573   -0.1593 C   0  0
    8.4246    1.9790   -0.2626 C   0  0
    8.5698    3.3681   -0.2611 C   0  0
    7.4308    4.1476   -0.3648 C   0  0
    6.2239    3.6002   -0.4639 N   0  0
    6.0301    2.3014   -0.4704 C   0  0
    7.1219    1.4283   -0.3700 C   0  0
    6.9895    0.0955   -0.3715 N   0  0
    8.0371   -0.6854   -0.2760 C   0  0
    9.2805   -0.2427   -0.1780 N   0  0
    7.5523    5.5366   -0.3648 N   0  0
    6.4482    6.3095   -0.3552 C   0  0
    5.3482    5.7991   -0.4386 O   0  0
    6.5748    7.7755   -0.2435 C   0  0
    5.4750    8.5455   -0.2339 C   0  0
    5.6017   10.0118   -0.1222 C   0  0
    6.7016   10.5222   -0.0388 O   0  0
    4.4976   10.7848   -0.1126 N   0  0
    4.6233   12.2402   -0.0017 C   0  0
    3.2312   12.8747   -0.0143 C   0  0
    3.3625   14.3947    0.1015 C   0  0
    2.0295   15.0023    0.0895 N   0  0
    1.3344   15.4138   -1.0156 C   0  0
    0.1615   15.9087   -0.5762 C   0  0
    0.1410   15.8023    0.7607 N   0  0
    1.2545   15.2556    1.1660 C   0  0
   12.8102   -2.3546   -1.4058 H   0  0
   10.9314   -0.7651   -1.3827 H   0  0
   13.1379    1.7919    1.2411 H   0  0
   14.8497   -1.8719   -0.1164 H   0  0
   11.0185    2.4691    0.0346 H   0  0
    9.5463    3.8225   -0.1806 H   0  0
    5.0286    1.9057   -0.5531 H   0  0
    7.8770   -1.7535   -0.2818 H   0  0
    8.4313    5.9466   -0.3717 H   0  0
    7.5522    8.2290   -0.1694 H   0  0
    4.4977    8.0920   -0.3080 H   0  0
    3.6198   10.3775   -0.1791 H   0  0
    5.1286   12.4912    0.9309 H   0  0
    5.2033   12.6199   -0.8428 H   0  0
    2.7259   12.6237   -0.9469 H   0  0
    2.6512   12.4950    0.8268 H   0  0
    3.8678   14.6457    1.0341 H   0  0
    3.9425   14.7744   -0.7396 H   0  0
    1.6634   15.3535   -2.0425 H   0  0
   -0.6247   16.3194   -1.1923 H   0  0
    1.5143   15.0434    2.1926 H   0  0
  1  6  4  0
  1  2  4  0
  1 35  1  0
  2  3  4  0
  2 36  1  0
  3  4  4  0
  3  8  1  0
  4  5  4  0
  4 37  1  0
  5  6  4  0
  5  7  1  0
  6 38  1  0
  8  9  1  0
  8 39  1  0
  9 18  4  0
  9 10  4  0
 10 15  4  0
 10 11  4  0
 11 12  4  0
 11 40  1  0
 12 13  4  0
 12 19  1  0
 13 14  4  0
 14 15  4  0
 14 41  1  0
 15 16  4  0
 16 17  4  0
 17 18  4  0
 17 42  1  0
 19 20  1  0
 19 43  1  0
 20 21  2  0
 20 22  1  0
 22 23  2  0
 22 44  1  0
 23 24  1  0
 23 45  1  0
 24 25  2  0
 24 26  1  0
 26 27  1  0
 26 46  1  0
 27 28  1  0
 27 47  1  0
 27 48  1  0
 28 29  1  0
 28 49  1  0
 28 50  1  0
 29 30  1  0
 29 51  1  0
 29 52  1  0
 30 34  1  0
 30 31  1  0
 31 32  2  0
 31 53  1  0
 32 33  1  0
 32 54  1  0
 33 34  2  0
 34 55  1  0
M  END
> <Name>
CHEMBL342828

$$$$
CHEMBL90595
  SciTegic01042610103D

 53 56  0  0  0  0            999 V2000
    1.2351   -0.4718    1.6892 C   0  0
    2.4067    0.2329    1.4926 C   0  0
    2.3940    1.4048    0.7471 C   0  0
    1.2022    1.8646    0.2014 C   0  0
    0.0336    1.1551    0.4017 C   0  0
    0.0502   -0.0122    1.1451 C   0  0
   -1.5897    1.7795   -0.3405 Br  0  0
    3.5780    2.1203    0.5469 N   0  0
    4.7803    1.4504    0.4459 C   0  0
    6.0039    2.1598    0.3642 C   0  0
    6.0536    3.5574    0.3821 C   0  0
    7.2764    4.1919    0.2997 C   0  0
    8.4575    3.4501    0.1985 C   0  0
    8.4303    2.0890    0.1790 C   0  0
    7.2040    1.4147    0.2621 C   0  0
    7.1304    0.0749    0.2474 N   0  0
    5.9688   -0.5287    0.3261 C   0  0
    4.8223    0.1251    0.4282 N   0  0
    7.3348    5.5893    0.3169 N   0  0
    8.3765    6.2131    0.9020 C   0  0
    9.2201    5.5651    1.4918 O   0  0
    8.4900    7.6387    0.8294 C   0  0
    8.5830    8.8075    0.7699 C   0  0
    8.6997   10.2730    0.6952 C   0  0
    9.9112   10.7045    1.4053 N   0  0
    9.7784   10.3894    2.8327 C   0  0
   11.0698   10.7628    3.5637 C   0  0
   11.3315   12.2619    3.3925 C   0  0
   11.3942   12.5918    1.8984 C   0  0
   10.0908   12.1506    1.2291 C   0  0
    1.2455   -1.3855    2.2650 H   0  0
    3.3317   -0.1268    1.9184 H   0  0
    1.1890    2.7757   -0.3784 H   0  0
   -0.8643   -0.5653    1.3001 H   0  0
    3.5545    3.0876    0.4790 H   0  0
    5.1440    4.1345    0.4594 H   0  0
    9.4051    3.9644    0.1346 H   0  0
    9.3511    1.5301    0.0998 H   0  0
    5.9469   -1.6084    0.3114 H   0  0
    6.6256    6.1095   -0.0922 H   0  0
    8.7618   10.5798   -0.3488 H   0  0
    7.8252   10.7311    1.1572 H   0  0
    8.9468   10.9548    3.2533 H   0  0
    9.5889    9.3227    2.9527 H   0  0
   10.9685   10.5297    4.6236 H   0  0
   11.9020   10.1977    3.1440 H   0  0
   10.5245   12.8282    3.8573 H   0  0
   12.2794   12.5225    3.8634 H   0  0
   11.5248   13.6661    1.7680 H   0  0
   12.2332   12.0647    1.4441 H   0  0
   10.1320   12.3842    0.1652 H   0  0
    9.2526   12.6785    1.6839 H   0  0
   10.7115   10.2189    1.0287 H   0  0
  1  6  4  0
  1  2  4  0
  1 31  1  0
  2  3  4  0
  2 32  1  0
  3  4  4  0
  3  8  1  0
  4  5  4  0
  4 33  1  0
  5  6  4  0
  5  7  1  0
  6 34  1  0
  8  9  1  0
  8 35  1  0
  9 18  4  0
  9 10  4  0
 10 15  4  0
 10 11  4  0
 11 12  4  0
 11 36  1  0
 12 13  4  0
 12 19  1  0
 13 14  4  0
 13 37  1  0
 14 15  4  0
 14 38  1  0
 15 16  4  0
 16 17  4  0
 17 18  4  0
 17 39  1  0
 19 20  1  0
 19 40  1  0
 20 21  2  0
 20 22  1  0
 22 23  3  0
 23 24  1  0
 24 25  1  0
 24 41  1  0
 24 42  1  0
 25 30  1  0
 25 26  1  0
 25 53  1  0
 26 27  1  0
 26 43  1  0
 26 44  1  0
 27 28  1  0
 27 45  1  0
 27 46  1  0
 28 29  1  0
 28 47  1  0
 28 48  1  0
 29 30  1  0
 29 49  1  0
 29 50  1  0
 30 51  1  0
 30 52  1  0
M  END
> <Name>
CHEMBL90595

$$$$
CHEMBL53426
  SciTegic01042610103D

 41 44  0  0  0  0            999 V2000
    1.0896   -0.4682    0.7393 C   0  0
    2.2784    0.2351    0.7268 C   0  0
    2.3813    1.4099   -0.0072 C   0  0
    1.2874    1.8739   -0.7269 C   0  0
    0.1011    1.1658   -0.7103 C   0  0
    0.0024   -0.0043    0.0222 C   0  0
   -1.3889    1.7959   -1.6894 Br  0  0
    3.5827    2.1238   -0.0212 N   0  0
    4.7857    1.4524    0.0679 C   0  0
    6.0514    2.1748    0.1768 C   0  0
    7.2400    1.4099    0.2637 C   0  0
    8.4642    2.0942    0.3688 C   0  0
    8.4457    3.4111    0.3813 N   0  0
    7.3068    4.0942    0.2975 C   0  0
    6.1298    3.5034    0.1967 N   0  0
    7.3576    5.4777    0.3168 N   0  0
    8.6482    6.1618    0.4277 C   0  0
    8.4249    7.6755    0.4264 C   0  0
    9.7525    8.3792    0.5405 C   0  0
   10.2273    9.3151   -0.3035 C   0  0
   11.4577    9.6859    0.1677 N   0  0
   12.0505   10.3447   -0.2266 H   0  0
   11.6923    8.9632    1.2842 C   0  0
   10.6660    8.1876    1.5038 N   0  0
    7.1514    0.0757    0.2420 N   0  0
    5.9884   -0.5203    0.1422 C   0  0
    4.8366    0.1263    0.0634 N   0  0
    1.0107   -1.3839    1.3063 H   0  0
    3.1270   -0.1279    1.2876 H   0  0
    1.3641    2.7871   -1.2983 H   0  0
   -0.9257   -0.5564    0.0334 H   0  0
    3.5713    3.0910   -0.0936 H   0  0
    9.3964    1.5532    0.4379 H   0  0
    6.5385    5.9939    0.2568 H   0  0
    9.1369    5.8675    1.3565 H   0  0
    9.2790    5.8869   -0.4177 H   0  0
    7.9363    7.9698   -0.5024 H   0  0
    7.7941    7.9504    1.2718 H   0  0
    9.7324    9.6990   -1.1834 H   0  0
   12.5802    9.0207    1.8962 H   0  0
    5.9687   -1.6001    0.1288 H   0  0
  1  6  4  0
  1  2  4  0
  1 28  1  0
  2  3  4  0
  2 29  1  0
  3  4  4  0
  3  8  1  0
  4  5  4  0
  4 30  1  0
  5  6  4  0
  5  7  1  0
  6 31  1  0
  8  9  1  0
  8 32  1  0
  9 27  4  0
  9 10  4  0
 10 15  4  0
 10 11  4  0
 11 12  4  0
 11 25  4  0
 12 13  4  0
 12 33  1  0
 13 14  4  0
 14 15  4  0
 14 16  1  0
 16 17  1  0
 16 34  1  0
 17 18  1  0
 17 35  1  0
 17 36  1  0
 18 19  1  0
 18 37  1  0
 18 38  1  0
 19 24  1  0
 19 20  2  0
 20 21  1  0
 20 39  1  0
 21 22  1  0
 21 23  1  0
 23 24  2  0
 23 40  1  0
 25 26  4  0
 26 27  4  0
 26 41  1  0
M  END
> <Name>
CHEMBL53426

$$$$
CHEMBL225721
  SciTegic01042610103D

 63 66  0  0  0  0            999 V2000
   -1.3804   -0.5421    0.5887 C   0  0
   -1.0825   -2.0427    0.5746 C   0  0  1  0  0  0
   -0.1995   -2.3987    1.7724 C   0  0
    0.0857   -3.8356    1.7588 N   0  0
    1.2645   -4.3417    1.0513 C   0  0
    2.4585   -4.3737    2.0075 C   0  0
    3.6373   -4.8798    1.3000 N   0  0
    4.8601   -5.0005    1.9731 N   0  0
    5.8980   -5.4462    1.3502 N   0  0
    7.0951   -5.5643    2.0091 C   0  0
    7.1843   -5.2042    3.3639 C   0  0
    8.3597   -5.3122    4.0390 C   0  0
    9.5034   -5.7894    3.3814 C   0  0
    9.4238   -6.1558    2.0147 C   0  0
    8.2084   -6.0441    1.3349 C   0  0
   10.5971   -6.6343    1.3804 C   0  0
   11.7093   -6.7146    2.0987 N   0  0
   11.7353   -6.3605    3.3734 C   0  0
   10.6809   -5.9111    4.0118 N   0  0
   10.5828   -7.0070    0.0522 N   0  0
   11.7163   -7.5887   -0.5227 C   0  0
   12.0446   -7.3152   -1.8447 C   0  0
   13.1649   -7.8912   -2.4103 C   0  0
   13.9603   -8.7402   -1.6626 C   0  0
   13.6368   -9.0151   -0.3455 C   0  0
   12.5199   -8.4366    0.2281 C   0  0
   14.6382  -10.0814    0.5892 Cl  0  0
   -0.7677   -4.7247    2.4217 C   0  0
   -1.8883   -4.2459    3.0875 C   0  0
   -2.7304   -5.1242    3.7411 C   0  0
   -2.4570   -6.4839    3.7324 C   0  0
   -1.3377   -6.9629    3.0680 C   0  0
   -0.4977   -6.0867    2.4091 C   0  0
   -3.2867   -7.3480    4.3763 O   0  0
   -2.9447   -8.7346    4.3265 C   0  0
   -2.6294   -2.9636    0.6736 Cl  0  0
   -0.4452    0.0146    0.5289 H   0  0
   -2.0094   -0.2885   -0.2645 H   0  0
   -1.8988   -0.2833    1.5120 H   0  0
   -0.5640   -2.3016   -0.3486 H   0  0
    0.7357   -1.8420    1.7125 H   0  0
   -0.7180   -2.1399    2.6956 H   0  0
    1.0644   -5.3491    0.6862 H   0  0
    1.4911   -3.6882    0.2089 H   0  0
    2.6586   -3.3663    2.3726 H   0  0
    2.2320   -5.0272    2.8499 H   0  0
    3.5712   -5.1314    0.3655 H   0  0
    6.3076   -4.8362    3.8761 H   0  0
    8.4128   -5.0307    5.0803 H   0  0
    8.1374   -6.3244    0.2943 H   0  0
   12.6671   -6.4453    3.9129 H   0  0
    9.7861   -6.8654   -0.4827 H   0  0
   11.4237   -6.6529   -2.4298 H   0  0
   13.4202   -7.6786   -3.4379 H   0  0
   14.8356   -9.1898   -2.1077 H   0  0
   12.2701   -8.6475    1.2575 H   0  0
   -2.1011   -3.1871    3.0947 H   0  0
   -3.6017   -4.7520    4.2593 H   0  0
   -1.1254   -8.0218    3.0620 H   0  0
    0.3712   -6.4603    1.8877 H   0  0
   -2.9242   -9.0667    3.2885 H   0  0
   -1.9624   -8.8828    4.7749 H   0  0
   -3.6867   -9.3119    4.8781 H   0  0
  1  2  1  0
  1 37  1  0
  1 38  1  0
  1 39  1  0
  2  3  1  0
  2 36  1  0
  2 40  1  0
  3  4  1  0
  3 41  1  0
  3 42  1  0
  4  5  1  0
  4 28  1  0
  5  6  1  0
  5 43  1  0
  5 44  1  0
  6  7  1  0
  6 45  1  0
  6 46  1  0
  7  8  1  0
  7 47  1  0
  8  9  2  0
  9 10  1  0
 10 15  4  0
 10 11  4  0
 11 12  4  0
 11 48  1  0
 12 13  4  0
 12 49  1  0
 13 19  4  0
 13 14  4  0
 14 15  4  0
 14 16  4  0
 15 50  1  0
 16 17  4  0
 16 20  1  0
 17 18  4  0
 18 19  4  0
 18 51  1  0
 20 21  1  0
 20 52  1  0
 21 26  4  0
 21 22  4  0
 22 23  4  0
 22 53  1  0
 23 24  4  0
 23 54  1  0
 24 25  4  0
 24 55  1  0
 25 26  4  0
 25 27  1  0
 26 56  1  0
 28 33  4  0
 28 29  4  0
 29 30  4  0
 29 57  1  0
 30 31  4  0
 30 58  1  0
 31 32  4  0
 31 34  1  0
 32 33  4  0
 32 59  1  0
 33 60  1  0
 34 35  1  0
 35 61  1  0
 35 62  1  0
 35 63  1  0
M  END
> <Name>
CHEMBL225721

$$$$
CHEMBL180022
  SciTegic01042610103D

 70 73  0  0  0  0            999 V2000
   -4.8739   -2.1797    1.1390 C   0  0
   -3.5184   -2.8777    1.0111 C   0  0
   -3.2593   -3.1667   -0.3642 O   0  0
   -2.0878   -3.7905   -0.6532 C   0  0
   -1.2211   -4.1164    0.3643 C   0  0
   -0.0094   -4.7608    0.0722 C   0  0
    0.3049   -5.0678   -1.2739 C   0  0
   -0.5912   -4.7281   -2.2975 C   0  0
   -1.7768   -4.1008   -1.9861 C   0  0
   -2.6753   -3.7660   -3.0060 N   0  0
   -2.2193   -3.5069   -4.2476 C   0  0
   -1.0416   -3.6638   -4.5080 O   0  0
   -3.1458   -3.0345   -5.2874 C   0  0
   -2.6958   -2.7788   -6.5128 C   0  0
   -3.6452   -2.2947   -7.5783 C   0  0
   -3.1448   -1.0348   -8.1442 N   0  0
   -1.8738   -1.2805   -8.8386 C   0  0
   -4.1279   -0.5012   -9.0965 C   0  0
    1.5278   -5.7175   -1.5627 C   0  0
    2.3746   -6.0270   -0.4874 C   0  0
    1.9819   -5.6850    0.8167 C   0  0
    0.8441   -5.0844    1.0552 N   0  0
    3.6255   -6.6849   -0.7174 C   0  0
    4.6179   -7.2069   -0.8999 N   0  0
    1.8765   -6.0368   -2.8593 N   0  0
    1.7023   -7.3434   -3.3291 C   0  0
    0.8564   -8.2165   -2.6569 C   0  0
    0.6844   -9.5056   -3.1211 C   0  0
    1.3561   -9.9295   -4.2580 C   0  0
    2.2021   -9.0584   -4.9305 C   0  0
    2.3704   -7.7661   -4.4707 C   0  0
    3.0433   -9.5902   -6.3529 Cl  0  0
    1.1863  -11.1996   -4.7140 O   0  0
    0.3015  -12.0421   -3.9728 C   0  0
    0.2396  -13.4005   -4.6224 C   0  0
    0.9875  -13.6495   -5.7578 C   0  0
    0.9234  -14.9024   -6.3476 C   0  0
    0.1057  -15.8624   -5.7707 C   0  0
   -0.6129  -15.5406   -4.6352 C   0  0
   -0.5233  -14.3394   -4.0979 N   0  0
   -4.8595   -1.2508    0.5689 H   0  0
   -5.6564   -2.8319    0.7511 H   0  0
   -5.0715   -1.9593    2.1880 H   0  0
   -2.7359   -2.2255    1.3989 H   0  0
   -3.5328   -3.8066    1.5811 H   0  0
   -1.4730   -3.8762    1.3867 H   0  0
   -0.3541   -4.9606   -3.3252 H   0  0
   -3.6260   -3.7205   -2.8192 H   0  0
   -4.1915   -2.8952   -5.0562 H   0  0
   -1.6501   -2.9181   -6.7440 H   0  0
   -3.7185   -3.0435   -8.3670 H   0  0
   -4.6298   -2.1306   -7.1404 H   0  0
   -1.1444   -1.6764   -8.1320 H   0  0
   -2.0315   -2.0018   -9.6405 H   0  0
   -1.5026   -0.3457   -9.2585 H   0  0
   -5.0710   -0.3189   -8.5813 H   0  0
   -3.7566    0.4337   -9.5164 H   0  0
   -4.2855   -1.2224   -9.8984 H   0  0
    2.6348   -5.9240    1.6431 H   0  0
    2.2423   -5.3556   -3.4450 H   0  0
    0.3336   -7.8872   -1.7711 H   0  0
    0.0266  -10.1842   -2.5982 H   0  0
    3.0249   -7.0865   -4.9964 H   0  0
    0.6678  -12.1442   -2.9512 H   0  0
   -0.6947  -11.6001   -3.9591 H   0  0
    1.6137  -12.8776   -6.1804 H   0  0
    1.4964  -15.1255   -7.2355 H   0  0
    0.0313  -16.8490   -6.2036 H   0  0
   -1.2520  -16.2826   -4.1798 H   0  0
   -2.9989   -0.3671   -7.4019 H   0  0
  1  2  1  0
  1 41  1  0
  1 42  1  0
  1 43  1  0
  2  3  1  0
  2 44  1  0
  2 45  1  0
  3  4  1  0
  4  9  4  0
  4  5  4  0
  5  6  4  0
  5 46  1  0
  6 22  4  0
  6  7  4  0
  7  8  4  0
  7 19  4  0
  8  9  4  0
  8 47  1  0
  9 10  1  0
 10 11  1  0
 10 48  1  0
 11 12  2  0
 11 13  1  0
 13 14  2  0
 13 49  1  0
 14 15  1  0
 14 50  1  0
 15 16  1  0
 15 51  1  0
 15 52  1  0
 16 17  1  0
 16 18  1  0
 16 70  1  0
 17 53  1  0
 17 54  1  0
 17 55  1  0
 18 56  1  0
 18 57  1  0
 18 58  1  0
 19 20  4  0
 19 25  1  0
 20 21  4  0
 20 23  1  0
 21 22  4  0
 21 59  1  0
 23 24  3  0
 25 26  1  0
 25 60  1  0
 26 31  4  0
 26 27  4  0
 27 28  4  0
 27 61  1  0
 28 29  4  0
 28 62  1  0
 29 30  4  0
 29 33  1  0
 30 31  4  0
 30 32  1  0
 31 63  1  0
 33 34  1  0
 34 35  1  0
 34 64  1  0
 34 65  1  0
 35 40  4  0
 35 36  4  0
 36 37  4  0
 36 66  1  0
 37 38  4  0
 37 67  1  0
 38 39  4  0
 38 68  1  0
 39 40  4  0
 39 69  1  0
M  END
> <Name>
CHEMBL180022

$$$$
CHEMBL471058
  SciTegic01042610103D

 52 56  0  0  0  0            999 V2000
   -0.6943    0.5355    0.8334 C   0  0
   -0.8019   -0.9596    0.5266 C   0  0
   -2.2323   -1.3038    0.2002 C   0  0
   -3.1244   -1.7328    1.0505 N   0  0
   -4.2851   -1.9352    0.4095 C   0  0
   -4.1054   -1.6195   -0.8873 C   0  0
   -2.8048   -1.2139   -1.0196 N   0  0
   -2.1545   -0.7682   -2.2544 C   0  0
   -1.4754   -1.9398   -2.9156 C   0  0
   -0.1270   -2.1638   -2.7060 C   0  0
    0.4986   -3.2363   -3.3108 C   0  0
   -0.2283   -4.0907   -4.1300 C   0  0
   -1.5827   -3.8630   -4.3380 C   0  0
   -2.2032   -2.7917   -3.7261 C   0  0
    0.4019   -5.1770   -4.7441 N   0  0
    1.5355   -5.7249   -4.1813 C   0  0
    2.1091   -5.4395   -3.0292 N   0  0
    3.2170   -6.0562   -2.6045 C   0  0
    3.7451   -7.0423   -3.4691 C   0  0
    2.6001   -7.0102   -4.8238 S   0  0
    4.8823   -7.7487   -3.1445 C   0  0
    5.4836   -7.4802   -1.9821 N   0  0
    4.9838   -6.5579   -1.1808 C   0  0
    3.9067   -5.8660   -1.4541 N   0  0
    5.3895   -8.7140   -4.0020 N   0  0
    6.4748   -9.5020   -3.6044 C   0  0
    6.6667   -9.7941   -2.2601 C   0  0
    7.7386  -10.5722   -1.8692 C   0  0
    8.6224  -11.0615   -2.8161 C   0  0
    8.4334  -10.7717   -4.1579 C   0  0
    7.3584   -9.9980   -4.5537 C   0  0
    9.5434  -11.3861   -5.3429 Cl  0  0
    9.6705  -11.8221   -2.4313 F   0  0
    0.3402    0.7844    1.0694 H   0  0
   -1.0168    1.1088   -0.0358 H   0  0
   -1.3299    0.7782    1.6850 H   0  0
   -0.1663   -1.2024   -0.3250 H   0  0
   -0.4794   -1.5330    1.3957 H   0  0
   -5.2029   -2.2892    0.8553 H   0  0
   -4.8463   -1.6723   -1.6713 H   0  0
   -2.9028   -0.3534   -2.9298 H   0  0
   -1.4137   -0.0040   -2.0195 H   0  0
    0.4376   -1.4992   -2.0689 H   0  0
    1.5518   -3.4103   -3.1472 H   0  0
   -2.1507   -4.5252   -4.9747 H   0  0
   -3.2571   -2.6164   -3.8842 H   0  0
    0.0419   -5.5454   -5.5660 H   0  0
    5.4920   -6.3630   -0.2479 H   0  0
    4.9916   -8.8425   -4.8773 H   0  0
    5.9780   -9.4125   -1.5207 H   0  0
    7.8879  -10.7989   -0.8238 H   0  0
    7.2086   -9.7759   -5.6000 H   0  0
  1  2  1  0
  1 34  1  0
  1 35  1  0
  1 36  1  0
  2  3  1  0
  2 37  1  0
  2 38  1  0
  3  7  1  0
  3  4  2  0
  4  5  1  0
  5  6  2  0
  5 39  1  0
  6  7  1  0
  6 40  1  0
  7  8  1  0
  8  9  1  0
  8 41  1  0
  8 42  1  0
  9 14  4  0
  9 10  4  0
 10 11  4  0
 10 43  1  0
 11 12  4  0
 11 44  1  0
 12 13  4  0
 12 15  1  0
 13 14  4  0
 13 45  1  0
 14 46  1  0
 15 16  1  0
 15 47  1  0
 16 20  1  0
 16 17  2  0
 17 18  1  0
 18 24  4  0
 18 19  4  0
 19 20  1  0
 19 21  4  0
 21 22  4  0
 21 25  1  0
 22 23  4  0
 23 24  4  0
 23 48  1  0
 25 26  1  0
 25 49  1  0
 26 31  4  0
 26 27  4  0
 27 28  4  0
 27 50  1  0
 28 29  4  0
 28 51  1  0
 29 30  4  0
 29 33  1  0
 30 31  4  0
 30 32  1  0
 31 52  1  0
M  END
> <Name>
CHEMBL471058

$$$$
CHEMBL212965
  SciTegic01042610103D

 67 72  0  0  0  0            999 V2000
    0.0978    1.8904    1.2820 C   0  0
    0.1674    0.8290    2.1649 C   0  0
    1.3909    0.2623    2.4694 C   0  0
    2.5448    0.7567    1.8907 C   0  0
    2.4752    1.8175    1.0071 C   0  0
    1.2518    2.3851    0.7036 C   0  0
    3.8788    0.1395    2.2234 C   0  0
    4.1565   -0.9188    1.3043 O   0  0
    5.3310   -1.5852    1.4665 C   0  0
    6.1934   -1.2299    2.4929 C   0  0
    7.3862   -1.9059    2.6585 C   0  0
    7.7227   -2.9420    1.7970 C   0  0
    6.8590   -3.2981    0.7696 C   0  0
    5.6633   -2.6242    0.6083 C   0  0
    4.5802   -3.0726   -0.6722 Cl  0  0
    8.9321   -3.6268    1.9640 N   0  0
    9.4546   -3.8053    3.2278 C   0  0
   10.7325   -4.3909    3.4114 C   0  0
   11.5155   -4.8101    2.3334 C   0  0
   12.7591   -5.3762    2.5769 C   0  0
   13.2266   -5.5266    3.8933 C   0  0
   12.4744   -5.1227    4.9514 C   0  0
   11.2133   -4.5470    4.7351 C   0  0
   10.4416   -4.1355    5.7521 N   0  0
    9.2662   -3.6000    5.5224 C   0  0
    8.7776   -3.4288    4.3044 N   0  0
   13.5962   -5.8239    1.4449 C   0  0
   14.8257   -6.3971    1.5394 C   0  0
   15.2528   -6.6610    0.2226 C   0  0
   14.2736   -6.2403   -0.6018 C   0  0
   13.2718   -5.7405    0.1404 O   0  0
   14.2958   -6.3229   -2.1063 C   0  0
   13.7145   -7.6021   -2.5351 N   0  0
   14.5463   -8.6986   -2.0354 C   0  0
   13.7807  -10.0229   -2.1408 C   0  0
   13.4252  -10.3378   -3.8980 S   0  0
   14.6426  -10.5692   -4.5934 O   0  0
   12.7030   -8.7600   -4.4473 C   0  0
   13.6299   -7.6246   -3.9968 C   0  0
   -0.8586    2.3303    1.0406 H   0  0
   -0.7342    0.4428    2.6171 H   0  0
    1.4453   -0.5664    3.1598 H   0  0
    3.3767    2.2040    0.5552 H   0  0
    1.1974    3.2142    0.0136 H   0  0
    4.6583    0.8979    2.1506 H   0  0
    3.8522   -0.2580    3.2380 H   0  0
    5.9323   -0.4240    3.1628 H   0  0
    8.0576   -1.6286    3.4577 H   0  0
    7.1200   -4.1036    0.0993 H   0  0
    9.4026   -3.9758    1.1909 H   0  0
   11.1569   -4.6952    1.3211 H   0  0
   14.1963   -5.9693    4.0670 H   0  0
   12.8471   -5.2452    5.9576 H   0  0
    8.6719   -3.2805    6.3657 H   0  0
   15.3698   -6.6092    2.4480 H   0  0
   16.1883   -7.1142   -0.0704 H   0  0
   13.7140   -5.5012   -2.5240 H   0  0
   15.3250   -6.2552   -2.4588 H   0  0
   15.4592   -8.7599   -2.6279 H   0  0
   14.8043   -8.5115   -0.9930 H   0  0
   14.3894  -10.8325   -1.7382 H   0  0
   12.8464   -9.9527   -1.5837 H   0  0
   12.6160   -8.7541   -5.5338 H   0  0
   11.7182   -8.6305   -3.9985 H   0  0
   13.2352   -6.6725   -4.3515 H   0  0
   14.6243   -7.7814   -4.4148 H   0  0
   12.7865   -7.6894   -2.1488 H   0  0
  1  6  4  0
  1  2  4  0
  1 40  1  0
  2  3  4  0
  2 41  1  0
  3  4  4  0
  3 42  1  0
  4  5  4  0
  4  7  1  0
  5  6  4  0
  5 43  1  0
  6 44  1  0
  7  8  1  0
  7 45  1  0
  7 46  1  0
  8  9  1  0
  9 14  4  0
  9 10  4  0
 10 11  4  0
 10 47  1  0
 11 12  4  0
 11 48  1  0
 12 13  4  0
 12 16  1  0
 13 14  4  0
 13 49  1  0
 14 15  1  0
 16 17  1  0
 16 50  1  0
 17 26  4  0
 17 18  4  0
 18 23  4  0
 18 19  4  0
 19 20  4  0
 19 51  1  0
 20 21  4  0
 20 27  1  0
 21 22  4  0
 21 52  1  0
 22 23  4  0
 22 53  1  0
 23 24  4  0
 24 25  4  0
 25 26  4  0
 25 54  1  0
 27 31  1  0
 27 28  2  0
 28 29  1  0
 28 55  1  0
 29 30  2  0
 29 56  1  0
 30 31  1  0
 30 32  1  0
 32 33  1  0
 32 57  1  0
 32 58  1  0
 33 39  1  0
 33 34  1  0
 33 67  1  0
 34 35  1  0
 34 59  1  0
 34 60  1  0
 35 36  1  0
 35 61  1  0
 35 62  1  0
 36 37  2  0
 36 38  1  0
 38 39  1  0
 38 63  1  0
 38 64  1  0
 39 65  1  0
 39 66  1  0
M  END
> <Name>
CHEMBL212965

$$$$
CHEMBL419137
  SciTegic01042610103D

 43 46  0  0  0  0            999 V2000
   -0.0173    1.4248    0.0099 C   0  0
    0.0021   -0.0041    0.0020 O   0  0
    0.6062   -0.6075   -1.0564 C   0  0
    1.1618    0.1569   -2.0428 C   0  0
    1.7844   -0.4633   -3.1326 C   0  0
    1.8348   -1.8774   -3.2066 C   0  0
    1.2583   -2.6412   -2.1846 C   0  0
    0.6568   -2.0069   -1.1201 C   0  0
    0.1015   -2.7454   -0.1243 O   0  0
    0.1855   -4.1667   -0.2465 C   0  0
    2.4385   -2.4468   -4.2617 N   0  0
    2.9702   -1.7050   -5.2038 C   0  0
    2.9472   -0.3818   -5.1770 N   0  0
    2.3762    0.2816   -4.1804 C   0  0
    2.3593    1.6610   -4.1657 N   0  0
    2.9778    2.4128   -5.2605 C   0  0  2  0  0  0
    3.8364    3.6236   -4.8893 C   0  0
    2.4604    3.8279   -5.5264 C   0  0  2  0  0  0
    1.3535    4.3416   -4.6422 C   0  0
    1.5507    4.4459   -3.2779 C   0  0
    0.5354    4.9171   -2.4668 C   0  0
   -0.6770    5.2846   -3.0200 C   0  0
   -0.8738    5.1813   -4.3843 C   0  0
    0.1429    4.7140   -5.1960 C   0  0
    1.0053    1.8021    0.0021 H   0  0
   -0.5445    1.7859   -0.8732 H   0  0
   -0.5275    1.7763    0.9067 H   0  0
    1.1207    1.2344   -1.9824 H   0  0
    1.2890   -3.7199   -2.2282 H   0  0
   -0.3168   -4.4830   -1.1607 H   0  0
    1.2326   -4.4669   -0.2848 H   0  0
   -0.2954   -4.6343    0.6127 H   0  0
    3.4484   -2.1958   -6.0385 H   0  0
    1.9379    2.1331   -3.4306 H   0  0
    3.2880    1.8203   -6.1212 H   0  0
    3.9410    3.8608   -3.8306 H   0  0
    4.7118    3.8278   -5.5058 H   0  0
    2.4306    4.1665   -6.5621 H   0  0
    2.4979    4.1587   -2.8457 H   0  0
    0.6892    4.9979   -1.4009 H   0  0
   -1.4704    5.6522   -2.3862 H   0  0
   -1.8212    5.4681   -4.8165 H   0  0
   -0.0096    4.6368   -6.2624 H   0  0
  1  2  1  0
  1 25  1  0
  1 26  1  0
  1 27  1  0
  2  3  1  0
  3  8  4  0
  3  4  4  0
  4  5  4  0
  4 28  1  0
  5 14  4  0
  5  6  4  0
  6  7  4  0
  6 11  4  0
  7  8  4  0
  7 29  1  0
  8  9  1  0
  9 10  1  0
 10 30  1  0
 10 31  1  0
 10 32  1  0
 11 12  4  0
 12 13  4  0
 12 33  1  0
 13 14  4  0
 14 15  1  0
 15 16  1  0
 15 34  1  0
 16 18  1  0
 16 17  1  0
 16 35  1  0
 17 18  1  0
 17 36  1  0
 17 37  1  0
 18 19  1  0
 18 38  1  0
 19 24  4  0
 19 20  4  0
 20 21  4  0
 20 39  1  0
 21 22  4  0
 21 40  1  0
 22 23  4  0
 22 41  1  0
 23 24  4  0
 23 42  1  0
 24 43  1  0
M  END
> <Name>
CHEMBL419137

$$$$
CHEMBL201307
  SciTegic01042610103D

 75 79  0  0  0  0            999 V2000
   -0.0216    1.4053    0.0405 C   0  0
   -0.0060   -0.0235    0.0261 O   0  0
   -1.2108   -0.6541    0.0250 C   0  0
   -2.3598    0.0847    0.0317 C   0  0
   -3.6007   -0.5634    0.0305 C   0  0
   -3.6582   -1.9793    0.0224 C   0  0
   -2.4679   -2.7166    0.0156 C   0  0
   -1.2599   -2.0549    0.0112 C   0  0
   -0.1034   -2.7677   -0.0009 O   0  0
   -0.2193   -4.1919   -0.0147 C   0  0
    1.1771   -4.8171   -0.0269 C   0  0
    1.0531   -6.3420   -0.0416 C   0  0
    2.3938   -6.9422   -0.0534 N   0  0
    3.0761   -6.5876   -1.3037 C   0  0
    4.5021   -7.1423   -1.2861 C   0  0
    4.4494   -8.6664   -1.1459 C   0  0  2  0  0  0
    3.6711   -9.0259    0.1230 C   0  0
    2.2759   -8.4014    0.0532 C   0  0
    5.8721   -9.2206   -1.0478 C   0  0
    5.8271  -10.6489   -1.0343 O   0  0
   -4.8606   -2.5758    0.0210 N   0  0
   -5.9588   -1.8583    0.0270 C   0  0
   -5.9538   -0.5348    0.0347 N   0  0
   -4.8203    0.1542    0.0367 C   0  0
   -4.8301    1.5354    0.0452 N   0  0
   -6.0370    2.2208    0.0513 C   0  0
   -7.2572    1.7280    0.0559 N   0  0
   -8.3130    2.5212    0.0614 C   0  0
   -8.0806    3.8564    0.0620 C   0  0
   -6.2954    3.8838    0.0618 S   0  0
   -9.0594    5.0023    0.0673 C   0  0
   -9.3800    5.3826    1.4898 C   0  0
   -8.8645    4.7822    2.4089 O   0  0
  -10.2396    6.3899    1.7407 N   0  0
  -10.6121    6.6801    3.0578 C   0  0
  -11.9029    7.1104    3.3370 C   0  0
  -12.2690    7.3960    4.6377 C   0  0
  -11.3521    7.2546    5.6629 C   0  0
  -10.0641    6.8258    5.3890 C   0  0
   -9.6939    6.5329    4.0884 C   0  0
   -9.1701    6.6889    6.3926 F   0  0
    1.0020    1.7799    0.0398 H   0  0
   -0.5432    1.7719   -0.8437 H   0  0
   -0.5356    1.7541    0.9362 H   0  0
   -2.3111    1.1636    0.0382 H   0  0
   -2.4968   -3.7962    0.0098 H   0  0
   -0.7571   -4.5213    0.8744 H   0  0
   -0.7647   -4.5035   -0.9055 H   0  0
    1.7149   -4.4877   -0.9159 H   0  0
    1.7225   -4.5055    0.8639 H   0  0
    0.5153   -6.6714    0.8474 H   0  0
    0.5077   -6.6536   -0.9324 H   0  0
    2.5318   -7.0125   -2.1472 H   0  0
    3.1099   -5.5028   -1.4036 H   0  0
    5.0064   -6.8795   -2.2160 H   0  0
    5.0473   -6.7179   -0.4431 H   0  0
    3.9491   -9.0952   -2.0142 H   0  0
    3.5815  -10.1095    0.2003 H   0  0
    4.1991   -8.6406    0.9953 H   0  0
    1.7190   -8.6556    0.9551 H   0  0
    1.7487   -8.7876   -0.8192 H   0  0
    6.4534   -8.8835   -1.9061 H   0  0
    6.3388   -8.8632   -0.1299 H   0  0
    6.6958  -11.0692   -0.9735 H   0  0
   -6.9096   -2.3705    0.0252 H   0  0
   -3.9936    2.0264    0.0470 H   0  0
   -9.3171    2.1235    0.0648 H   0  0
   -8.6206    5.8572   -0.4473 H   0  0
   -9.9741    4.7012   -0.4433 H   0  0
  -10.6001    6.9136    1.0081 H   0  0
  -12.6200    7.2221    2.5372 H   0  0
  -13.2727    7.7306    4.8543 H   0  0
  -11.6408    7.4792    6.6791 H   0  0
   -8.6908    6.1946    3.8748 H   0  0
    2.9254   -6.5907    0.7289 H   0  0
  1  2  1  0
  1 42  1  0
  1 43  1  0
  1 44  1  0
  2  3  1  0
  3  8  4  0
  3  4  4  0
  4  5  4  0
  4 45  1  0
  5 24  4  0
  5  6  4  0
  6  7  4  0
  6 21  4  0
  7  8  4  0
  7 46  1  0
  8  9  1  0
  9 10  1  0
 10 11  1  0
 10 47  1  0
 10 48  1  0
 11 12  1  0
 11 49  1  0
 11 50  1  0
 12 13  1  0
 12 51  1  0
 12 52  1  0
 13 18  1  0
 13 14  1  0
 13 75  1  0
 14 15  1  0
 14 53  1  0
 14 54  1  0
 15 16  1  0
 15 55  1  0
 15 56  1  0
 16 17  1  0
 16 19  1  0
 16 57  1  0
 17 18  1  0
 17 58  1  0
 17 59  1  0
 18 60  1  0
 18 61  1  0
 19 20  1  0
 19 62  1  0
 19 63  1  0
 20 64  1  0
 21 22  4  0
 22 23  4  0
 22 65  1  0
 23 24  4  0
 24 25  1  0
 25 26  1  0
 25 66  1  0
 26 30  1  0
 26 27  2  0
 27 28  1  0
 28 29  2  0
 28 67  1  0
 29 30  1  0
 29 31  1  0
 31 32  1  0
 31 68  1  0
 31 69  1  0
 32 33  2  0
 32 34  1  0
 34 35  1  0
 34 70  1  0
 35 40  4  0
 35 36  4  0
 36 37  4  0
 36 71  1  0
 37 38  4  0
 37 72  1  0
 38 39  4  0
 38 73  1  0
 39 40  4  0
 39 41  1  0
 40 74  1  0
M  END
> <Name>
CHEMBL201307

$$$$
CHEMBL179274
  SciTegic01042610103D

 75 79  0  0  0  0            999 V2000
    5.9227   -2.8822   -3.8024 C   0  0
    4.7450   -3.4007   -2.9747 C   0  0
    5.2293   -3.9420   -1.7441 O   0  0
    4.3050   -4.4485   -0.8871 C   0  0
    2.9732   -4.4262   -1.2313 C   0  0
    2.0137   -4.9479   -0.3504 C   0  0
    2.4335   -5.4928    0.8874 C   0  0
    3.7955   -5.5071    1.2206 C   0  0
    4.7194   -4.9942    0.3377 C   0  0
    6.0800   -5.0128    0.6661 N   0  0
    6.4640   -4.9085    1.9538 C   0  0
    5.6298   -4.9091    2.8391 O   0  0
    7.8914   -4.7941    2.2885 C   0  0
    8.2704   -4.6912    3.5594 C   0  0
    9.7331   -4.5740    3.9024 C   0  0
    9.9502   -3.3706    4.7166 N   0  0
    9.2597   -3.5197    6.0046 C   0  0
   11.3893   -3.1907    4.9504 C   0  0
    1.4620   -6.0173    1.7716 C   0  0
    0.1181   -5.9694    1.3708 C   0  0
   -0.2075   -5.4105    0.1246 C   0  0
    0.7121   -4.9326   -0.6742 N   0  0
   -0.9102   -6.4855    2.2234 C   0  0
   -1.7259   -6.8948    2.8998 N   0  0
    1.8241   -6.5589    2.9884 N   0  0
    2.1225   -7.9225    3.0863 C   0  0
    2.1759   -8.7061    1.9407 C   0  0
    2.4709  -10.0517    2.0376 C   0  0
    2.7136  -10.6215    3.2787 C   0  0
    2.6601   -9.8398    4.4245 C   0  0
    2.3711   -8.4918    4.3284 C   0  0
    2.9629  -10.5540    5.9775 Cl  0  0
    3.0036  -11.9469    3.3731 O   0  0
    2.9673  -12.7067    2.1633 C   0  0  2  0  0  0
    2.2295  -12.2899    1.4777 H   0  0
    2.6405  -14.1840    2.4684 C   0  0
    4.0436  -14.8114    2.6096 C   0  0
    4.9539  -13.9387    1.7723 C   0  0
    4.3348  -12.7269    1.5146 C   0  0
    4.9846  -11.7645    0.7606 C   0  0
    6.2500  -12.0086    0.2631 C   0  0
    6.8704  -13.2168    0.5187 C   0  0
    6.2225  -14.1832    1.2744 C   0  0
    6.6090   -3.7028   -4.0115 H   0  0
    5.5533   -2.4693   -4.7411 H   0  0
    6.4449   -2.1052   -3.2442 H   0  0
    4.0587   -2.5800   -2.7656 H   0  0
    4.2227   -4.1777   -3.5329 H   0  0
    2.6666   -4.0074   -2.1784 H   0  0
    4.1187   -5.9217    2.1640 H   0  0
    6.7466   -5.1006   -0.0331 H   0  0
    8.6321   -4.7936    1.5025 H   0  0
    7.5297   -4.6917    4.3455 H   0  0
   10.0463   -5.4540    4.4641 H   0  0
   10.3169   -4.5019    2.9848 H   0  0
    9.6541   -4.3897    6.5297 H   0  0
    9.4208   -2.6269    6.6087 H   0  0
    8.1920   -3.6533    5.8311 H   0  0
   11.9016   -3.0801    3.9947 H   0  0
   11.5504   -2.2978    5.5545 H   0  0
   11.7837   -4.0607    5.4755 H   0  0
   -1.2424   -5.3744   -0.1823 H   0  0
    1.8717   -5.9942    3.7757 H   0  0
    1.9864   -8.2632    0.9741 H   0  0
    2.5124  -10.6607    1.1467 H   0  0
    2.3341   -7.8823    5.2192 H   0  0
    2.0810  -14.2727    3.3996 H   0  0
    2.0942  -14.6386    1.6419 H   0  0
    4.3608  -14.7978    3.6523 H   0  0
    4.0417  -15.8321    2.2272 H   0  0
    4.5004  -10.8201    0.5605 H   0  0
    6.7539  -11.2561   -0.3253 H   0  0
    7.8596  -13.4094    0.1303 H   0  0
    6.7062  -15.1279    1.4742 H   0  0
    9.5852   -2.5653    4.2305 H   0  0
  1  2  1  0
  1 44  1  0
  1 45  1  0
  1 46  1  0
  2  3  1  0
  2 47  1  0
  2 48  1  0
  3  4  1  0
  4  9  4  0
  4  5  4  0
  5  6  4  0
  5 49  1  0
  6 22  4  0
  6  7  4  0
  7  8  4  0
  7 19  4  0
  8  9  4  0
  8 50  1  0
  9 10  1  0
 10 11  1  0
 10 51  1  0
 11 12  2  0
 11 13  1  0
 13 14  2  0
 13 52  1  0
 14 15  1  0
 14 53  1  0
 15 16  1  0
 15 54  1  0
 15 55  1  0
 16 17  1  0
 16 18  1  0
 16 75  1  0
 17 56  1  0
 17 57  1  0
 17 58  1  0
 18 59  1  0
 18 60  1  0
 18 61  1  0
 19 20  4  0
 19 25  1  0
 20 21  4  0
 20 23  1  0
 21 22  4  0
 21 62  1  0
 23 24  3  0
 25 26  1  0
 25 63  1  0
 26 31  4  0
 26 27  4  0
 27 28  4  0
 27 64  1  0
 28 29  4  0
 28 65  1  0
 29 30  4  0
 29 33  1  0
 30 31  4  0
 30 32  1  0
 31 66  1  0
 33 34  1  0
 34 35  1  0
 34 39  1  0
 34 36  1  0
 36 37  1  0
 36 67  1  0
 36 68  1  0
 37 38  1  0
 37 69  1  0
 37 70  1  0
 38 43  4  0
 38 39  4  0
 39 40  4  0
 40 41  4  0
 40 71  1  0
 41 42  4  0
 41 72  1  0
 42 43  4  0
 42 73  1  0
 43 74  1  0
M  END
> <Name>
CHEMBL179274

$$$$
CHEMBL179074
  SciTegic01042610103D

 67 70  0  0  0  0            999 V2000
    3.4772   -2.0812    3.6648 C   0  0
    2.7067   -2.8024    2.5571 C   0  0
    1.3937   -3.1228    3.0211 O   0  0
    0.5737   -3.7702    2.1530 C   0  0
    1.0300   -4.0892    0.8949 C   0  0
    0.1878   -4.7579   -0.0064 C   0  0
   -1.1272   -5.0965    0.3952 C   0  0
   -1.5744   -4.7635    1.6818 C   0  0
   -0.7281   -4.1118    2.5509 C   0  0
   -1.1709   -3.7831    3.8375 N   0  0
   -2.4802   -3.5556    4.0620 C   0  0
   -3.2900   -3.7360    3.1726 O   0  0
   -2.9297   -3.0893    5.3824 C   0  0
   -4.2219   -2.8647    5.6039 C   0  0
   -4.6825   -2.3869    6.9569 C   0  0
   -5.4538   -1.1463    6.8016 N   0  0
   -6.6838   -1.4255    6.0486 C   0  0
   -5.8007   -0.6162    8.1270 C   0  0
   -1.9719   -5.7706   -0.5173 C   0  0
   -1.4562   -6.0717   -1.7869 C   0  0
   -0.1394   -5.6978   -2.0999 C   0  0
    0.6206   -5.0750   -1.2358 N   0  0
   -2.2640   -6.7533   -2.7531 C   0  0
   -2.9048   -7.2941   -3.5195 N   0  0
   -3.2613   -6.1212   -0.1700 N   0  0
   -3.5480   -7.4320    0.2198 C   0  0
   -2.5220   -8.2795    0.6199 C   0  0
   -2.8081   -9.5743    1.0051 C   0  0
   -4.1142  -10.0287    0.9927 C   0  0
   -5.1388   -9.1878    0.5949 C   0  0
   -4.8595   -7.8887    0.2137 C   0  0
   -6.7767   -9.7629    0.5805 Cl  0  0
   -4.4223  -11.4428    1.4128 C   0  0
   -4.9122  -11.4463    2.7935 N   0  0
   -4.1506  -11.5589    3.9253 C   0  0
   -4.9981  -11.5158    4.9710 C   0  0
   -6.2431  -11.3805    4.4909 N   0  0
   -6.1989  -11.3331    3.1875 C   0  0
    4.4788   -1.8369    3.3109 H   0  0
    2.9532   -1.1641    3.9341 H   0  0
    3.5486   -2.7288    4.5387 H   0  0
    2.6354   -2.1548    1.6833 H   0  0
    3.2307   -3.7195    2.2879 H   0  0
    2.0351   -3.8248    0.6012 H   0  0
   -2.5769   -5.0200    1.9910 H   0  0
   -0.5353   -3.7191    4.5675 H   0  0
   -2.2106   -2.9291    6.1721 H   0  0
   -4.9410   -3.0249    4.8142 H   0  0
   -5.3103   -3.1498    7.4173 H   0  0
   -3.8156   -2.1989    7.5903 H   0  0
   -6.4264   -1.8188    5.0651 H   0  0
   -7.2816   -2.1598    6.5885 H   0  0
   -7.2560   -0.5050    5.9333 H   0  0
   -4.8880   -0.4091    8.6857 H   0  0
   -6.3729    0.3043    8.0117 H   0  0
   -6.3985   -1.3505    8.6669 H   0  0
    0.2561   -5.9307   -3.0775 H   0  0
   -3.9682   -5.4575   -0.1965 H   0  0
   -1.5016   -7.9258    0.6293 H   0  0
   -2.0108  -10.2330    1.3160 H   0  0
   -5.6596   -7.2313   -0.0928 H   0  0
   -5.1856  -11.8590    0.7554 H   0  0
   -3.5173  -12.0468    1.3469 H   0  0
   -3.0766  -11.6628    3.9709 H   0  0
   -4.7233  -11.5791    6.0136 H   0  0
   -7.0506  -11.2241    2.5323 H   0  0
   -4.9004   -0.4666    6.3018 H   0  0
  1  2  1  0
  1 39  1  0
  1 40  1  0
  1 41  1  0
  2  3  1  0
  2 42  1  0
  2 43  1  0
  3  4  1  0
  4  9  4  0
  4  5  4  0
  5  6  4  0
  5 44  1  0
  6 22  4  0
  6  7  4  0
  7  8  4  0
  7 19  4  0
  8  9  4  0
  8 45  1  0
  9 10  1  0
 10 11  1  0
 10 46  1  0
 11 12  2  0
 11 13  1  0
 13 14  2  0
 13 47  1  0
 14 15  1  0
 14 48  1  0
 15 16  1  0
 15 49  1  0
 15 50  1  0
 16 17  1  0
 16 18  1  0
 16 67  1  0
 17 51  1  0
 17 52  1  0
 17 53  1  0
 18 54  1  0
 18 55  1  0
 18 56  1  0
 19 20  4  0
 19 25  1  0
 20 21  4  0
 20 23  1  0
 21 22  4  0
 21 57  1  0
 23 24  3  0
 25 26  1  0
 25 58  1  0
 26 31  4  0
 26 27  4  0
 27 28  4  0
 27 59  1  0
 28 29  4  0
 28 60  1  0
 29 30  4  0
 29 33  1  0
 30 31  4  0
 30 32  1  0
 31 61  1  0
 33 34  1  0
 33 62  1  0
 33 63  1  0
 34 38  1  0
 34 35  1  0
 35 36  2  0
 35 64  1  0
 36 37  1  0
 36 65  1  0
 37 38  2  0
 38 66  1  0
M  END
> <Name>
CHEMBL179074

$$$$
CHEMBL186580
  SciTegic01042610103D

 50 53  0  0  0  0            999 V2000
    1.0108    1.1172    0.4085 C   0  0
    0.4594   -0.1776    0.1602 O   0  0
    0.5291   -0.6440   -1.1152 C   0  0
    1.1140    0.1218   -2.0835 C   0  0
    1.1867   -0.3576   -3.3967 C   0  0
    0.6544   -1.6319   -3.7141 C   0  0
    0.0594   -2.3999   -2.7060 C   0  0
    0.0051   -1.9078   -1.4206 C   0  0
   -0.5667   -2.6531   -0.4393 O   0  0
   -1.0824   -3.9323   -0.8133 C   0  0
    0.7375   -2.0681   -4.9809 N   0  0
    1.3013   -1.3262   -5.9041 C   0  0
    1.8117   -0.1308   -5.6545 N   0  0
    1.7824    0.3951   -4.4368 C   0  0
    2.3180    1.6430   -4.1910 N   0  0
    3.0075    2.3208   -5.2038 C   0  0
    3.6000    1.6087   -6.2370 C   0  0
    4.2825    2.2828   -7.2390 C   0  0
    4.3716    3.6704   -7.2063 C   0  0
    3.7803    4.3783   -6.1755 C   0  0
    3.0942    3.7085   -5.1781 C   0  0
    2.5128    4.4027   -4.1754 F   0  0
    5.0365    4.3273   -8.1818 F   0  0
    4.8818    1.5665   -8.2828 N   0  0
    5.2433    0.2814   -8.0975 C   0  0
    5.1454   -0.2250   -6.9966 O   0  0
    5.7588   -0.5124   -9.2329 C   0  0
    5.8779    0.0676  -10.4970 C   0  0
    6.3601   -0.6786  -11.5523 C   0  0
    6.7250   -1.9993  -11.3600 C   0  0
    6.6091   -2.5805  -10.1097 C   0  0
    6.1341   -1.8436   -9.0445 C   0  0
    2.0709    1.1154    0.1549 H   0  0
    0.4923    1.8562   -0.2024 H   0  0
    0.8898    1.3676    1.4624 H   0  0
    1.5180    1.0926   -1.8371 H   0  0
   -0.3507   -3.3727   -2.9337 H   0  0
   -1.8545   -3.8051   -1.5720 H   0  0
   -0.2760   -4.5459   -1.2148 H   0  0
   -1.5101   -4.4216    0.0618 H   0  0
    1.3516   -1.7081   -6.9131 H   0  0
    2.2168    2.0505   -3.3166 H   0  0
    3.5301    0.5313   -6.2607 H   0  0
    3.8504    5.4558   -6.1517 H   0  0
    5.0367    1.9953   -9.1390 H   0  0
    5.5927    1.0982  -10.6486 H   0  0
    6.4528   -0.2311  -12.5308 H   0  0
    7.1017   -2.5793  -12.1895 H   0  0
    6.8949   -3.6121   -9.9664 H   0  0
    6.0483   -2.2971   -8.0681 H   0  0
  1  2  1  0
  1 33  1  0
  1 34  1  0
  1 35  1  0
  2  3  1  0
  3  8  4  0
  3  4  4  0
  4  5  4  0
  4 36  1  0
  5 14  4  0
  5  6  4  0
  6  7  4  0
  6 11  4  0
  7  8  4  0
  7 37  1  0
  8  9  1  0
  9 10  1  0
 10 38  1  0
 10 39  1  0
 10 40  1  0
 11 12  4  0
 12 13  4  0
 12 41  1  0
 13 14  4  0
 14 15  1  0
 15 16  1  0
 15 42  1  0
 16 21  4  0
 16 17  4  0
 17 18  4  0
 17 43  1  0
 18 19  4  0
 18 24  1  0
 19 20  4  0
 19 23  1  0
 20 21  4  0
 20 44  1  0
 21 22  1  0
 24 25  1  0
 24 45  1  0
 25 26  2  0
 25 27  1  0
 27 32  4  0
 27 28  4  0
 28 29  4  0
 28 46  1  0
 29 30  4  0
 29 47  1  0
 30 31  4  0
 30 48  1  0
 31 32  4  0
 31 49  1  0
 32 50  1  0
M  END
> <Name>
CHEMBL186580

$$$$
CHEMBL204420
  SciTegic01042610103D

 57 60  0  0  0  0            999 V2000
   -1.9268    0.8823   -0.3744 C   0  0
   -1.3141   -0.4433   -0.2151 N   0  0  2  0  0  0
   -2.3685   -1.4613   -0.1178 C   0  0
   -1.7304   -2.8444    0.0293 C   0  0
   -0.8904   -2.8675    1.2351 N   0  0
    0.1548   -1.8367    1.1630 C   0  0  2  0  0  0
   -0.4988   -0.4619    1.0066 C   0  0
    1.0468   -2.1071   -0.0212 C   0  0
    0.7696   -2.9954   -0.7989 O   0  0
    2.1526   -1.3616   -0.2160 N   0  0
   -0.3039   -4.1982    1.4427 C   0  0
   -1.3987   -5.1874    1.7494 C   0  0
   -1.6376   -5.5470    3.0416 C   0  0
   -2.6536   -6.4654    3.3298 C   0  0
   -3.4272   -7.0156    2.2774 C   0  0
   -3.1634   -6.6311    0.9582 C   0  0
   -2.1596   -5.7199    0.7054 C   0  0
   -1.9041   -5.3400   -0.5730 O   0  0
   -2.7160   -5.9192   -1.5965 C   0  0
   -4.3960   -7.8939    2.5802 N   0  0
   -4.6192   -8.2339    3.8274 C   0  0
   -3.9231   -7.7468    4.8420 N   0  0
   -2.9431   -6.8722    4.6542 C   0  0
   -2.2256   -6.3726    5.7213 N   0  0
   -2.4383   -6.8817    7.0071 C   0  0
   -3.0363   -8.1238    7.1736 C   0  0
   -3.2450   -8.6247    8.4440 C   0  0
   -2.8594   -7.8913    9.5510 C   0  0
   -2.2630   -6.6529    9.3910 C   0  0
   -2.0462   -6.1475    8.1209 C   0  0
   -1.4590   -4.9410    7.9637 F   0  0
   -1.7811   -5.7355   10.7838 Cl  0  0
   -1.1445    1.6377   -0.4480 H   0  0
   -2.5318    0.8963   -1.2810 H   0  0
   -2.5587    1.0964    0.4875 H   0  0
   -2.9933   -1.2552    0.7512 H   0  0
   -2.9807   -1.4376   -1.0193 H   0  0
   -2.5127   -3.5984    0.1166 H   0  0
   -1.1163   -3.0565   -0.8459 H   0  0
    0.7479   -1.8555    2.0773 H   0  0
    0.2751    0.3027    0.9386 H   0  0
   -1.1332   -0.2609    1.8698 H   0  0
    2.3743   -0.6511    0.4060 H   0  0
    2.7268   -1.5356   -0.9782 H   0  0
    0.2231   -4.5078    0.5402 H   0  0
    0.3961   -4.1606    2.2774 H   0  0
   -1.0452   -5.1254    3.8401 H   0  0
   -3.7437   -7.0415    0.1450 H   0  0
   -2.4079   -5.5317   -2.5675 H   0  0
   -2.5984   -7.0028   -1.5838 H   0  0
   -3.7609   -5.6650   -1.4187 H   0  0
   -5.4067   -8.9430    4.0356 H   0  0
   -1.5735   -5.6685    5.5802 H   0  0
   -3.3385   -8.6980    6.3102 H   0  0
   -3.7104   -9.5907    8.5728 H   0  0
   -3.0244   -8.2858   10.5427 H   0  0
   -0.7288   -0.6411   -1.0128 H   0  0
  1  2  1  0
  1 33  1  0
  1 34  1  0
  1 35  1  0
  2  7  1  0
  2  3  1  0
  2 57  1  0
  3  4  1  0
  3 36  1  0
  3 37  1  0
  4  5  1  0
  4 38  1  0
  4 39  1  0
  5  6  1  0
  5 11  1  0
  6  7  1  0
  6  8  1  0
  6 40  1  0
  7 41  1  0
  7 42  1  0
  8  9  2  0
  8 10  1  0
 10 43  1  0
 10 44  1  0
 11 12  1  0
 11 45  1  0
 11 46  1  0
 12 17  4  0
 12 13  4  0
 13 14  4  0
 13 47  1  0
 14 23  4  0
 14 15  4  0
 15 16  4  0
 15 20  4  0
 16 17  4  0
 16 48  1  0
 17 18  1  0
 18 19  1  0
 19 49  1  0
 19 50  1  0
 19 51  1  0
 20 21  4  0
 21 22  4  0
 21 52  1  0
 22 23  4  0
 23 24  1  0
 24 25  1  0
 24 53  1  0
 25 30  4  0
 25 26  4  0
 26 27  4  0
 26 54  1  0
 27 28  4  0
 27 55  1  0
 28 29  4  0
 28 56  1  0
 29 30  4  0
 29 32  1  0
 30 31  1  0
M  END
> <Name>
CHEMBL204420

$$$$
CHEMBL95774
  SciTegic01042610103D

 61 64  0  0  0  0            999 V2000
    2.5953   -1.9024   -5.4952 C   0  0
    3.2319   -2.9810   -5.0473 C   0  0
    3.7314   -3.0189   -3.6646 C   0  0
    3.5624   -2.0638   -2.9305 O   0  0
    4.3764   -4.1118   -3.2107 N   0  0
    4.9591   -4.1025   -1.9379 C   0  0
    5.3340   -2.9074   -1.3659 C   0  0
    5.9171   -2.9001   -0.0907 C   0  0
    6.1178   -4.1186    0.6023 C   0  0
    5.7280   -5.3238   -0.0013 C   0  0
    5.1521   -5.3108   -1.2507 C   0  0
    4.7713   -6.4802   -1.8274 O   0  0
    4.9942   -7.6761   -1.0776 C   0  0
    4.5052   -8.8816   -1.8830 C   0  0
    4.7438  -10.1620   -1.0802 C   0  0
    4.2744  -11.3194   -1.8535 N   0  0
    2.8140  -11.2852   -2.0189 C   0  0
    2.3752  -12.4736   -2.8787 C   0  0
    2.8228  -13.6875   -2.2692 O   0  0
    4.2405  -13.7548   -2.0934 C   0  0
    4.6982  -12.5794   -1.2258 C   0  0
    6.6743   -4.1170    1.8228 N   0  0
    7.0484   -3.0110    2.4136 C   0  0
    6.8874   -1.7581    1.8003 C   0  0
    6.3119   -1.6882    0.5225 C   0  0
    6.1360   -0.4764   -0.1148 N   0  0
    7.2480    0.2675   -0.5217 C   0  0
    8.4015   -0.3807   -0.9448 C   0  0
    9.4986    0.3554   -1.3468 C   0  0
    9.4500    1.7391   -1.3287 C   0  0
    8.3008    2.3884   -0.9067 C   0  0
    7.1986    1.6553   -0.5090 C   0  0
    8.2432    4.1233   -0.8840 Cl  0  0
   10.5245    2.4571   -1.7225 F   0  0
    7.3064   -0.5647    2.4716 C   0  0
    7.6388    0.3821    3.0041 N   0  0
    2.4453   -1.0544   -4.8435 H   0  0
    2.2325   -1.8729   -6.5120 H   0  0
    3.3820   -3.8290   -5.6990 H   0  0
    4.4368   -4.9048   -3.7660 H   0  0
    5.1800   -1.9798   -1.8972 H   0  0
    5.8753   -6.2602    0.5163 H   0  0
    6.0594   -7.7836   -0.8732 H   0  0
    4.4472   -7.6220   -0.1363 H   0  0
    3.4400   -8.7741   -2.0874 H   0  0
    5.0521   -8.9357   -2.8243 H   0  0
    5.8091  -10.2695   -0.8758 H   0  0
    4.1969  -10.1079   -0.1389 H   0  0
    2.3354  -11.3468   -1.0415 H   0  0
    2.5248  -10.3553   -2.5086 H   0  0
    1.2880  -12.4848   -2.9566 H   0  0
    2.8111  -12.3837   -3.8736 H   0  0
    4.5024  -14.6926   -1.6035 H   0  0
    4.7307  -13.7021   -3.0656 H   0  0
    5.7844  -12.5943   -1.1364 H   0  0
    4.2497  -12.6617   -0.2357 H   0  0
    7.4915   -3.0630    3.3971 H   0  0
    5.2410   -0.1409   -0.2803 H   0  0
    8.4404   -1.4599   -0.9590 H   0  0
   10.3955   -0.1486   -1.6754 H   0  0
    6.3014    2.1613   -0.1843 H   0  0
  1  2  2  0
  1 37  1  0
  1 38  1  0
  2  3  1  0
  2 39  1  0
  3  4  2  0
  3  5  1  0
  5  6  1  0
  5 40  1  0
  6 11  4  0
  6  7  4  0
  7  8  4  0
  7 41  1  0
  8 25  4  0
  8  9  4  0
  9 10  4  0
  9 22  4  0
 10 11  4  0
 10 42  1  0
 11 12  1  0
 12 13  1  0
 13 14  1  0
 13 43  1  0
 13 44  1  0
 14 15  1  0
 14 45  1  0
 14 46  1  0
 15 16  1  0
 15 47  1  0
 15 48  1  0
 16 21  1  0
 16 17  1  0
 17 18  1  0
 17 49  1  0
 17 50  1  0
 18 19  1  0
 18 51  1  0
 18 52  1  0
 19 20  1  0
 20 21  1  0
 20 53  1  0
 20 54  1  0
 21 55  1  0
 21 56  1  0
 22 23  4  0
 23 24  4  0
 23 57  1  0
 24 25  4  0
 24 35  1  0
 25 26  1  0
 26 27  1  0
 26 58  1  0
 27 32  4  0
 27 28  4  0
 28 29  4  0
 28 59  1  0
 29 30  4  0
 29 60  1  0
 30 31  4  0
 30 34  1  0
 31 32  4  0
 31 33  1  0
 32 61  1  0
 35 36  3  0
M  END
> <Name>
CHEMBL95774

$$$$
CHEMBL121796
  SciTegic01042610103D

 40 43  0  0  0  0            999 V2000
    0.5319    2.3020    0.1081 C   0  0
    1.7444    2.9319    0.3181 C   0  0
    2.9166    2.1995    0.2969 C   0  0
    2.8763    0.8371    0.0663 C   0  0
    1.6638    0.2071   -0.1427 C   0  0
    0.4917    0.9397   -0.1230 C   0  0
    4.1543    0.0389    0.0423 C   0  0
    4.4525   -0.4462    1.3921 N   0  0
    5.5839   -1.2076    1.6188 C   0  0
    5.9899   -1.7319    2.8394 C   0  0
    5.4991   -1.7154    4.1624 C   0  0
    6.1915   -2.3571    5.0962 N   0  0
    7.3141   -3.0027    4.8232 C   0  0
    7.8423   -3.0707    3.6268 N   0  0
    7.2432   -2.4633    2.5825 C   0  0
    7.4978   -2.3405    1.2992 N   0  0
    6.4887   -1.5803    0.6970 N   0  0
    4.3327   -1.0509    4.4769 N   0  0
    3.9268   -0.9440    5.8104 C   0  0
    2.5763   -0.9917    6.1328 C   0  0
    2.1780   -0.8859    7.4508 C   0  0
    3.1216   -0.7326    8.4500 C   0  0
    4.4677   -0.6842    8.1328 C   0  0
    4.8730   -0.7958    6.8159 C   0  0
    5.6488   -0.4911    9.3904 Cl  0  0
   -0.3843    2.8734    0.1291 H   0  0
    1.7759    3.9963    0.4982 H   0  0
    3.8639    2.6918    0.4603 H   0  0
    1.6323   -0.8573   -0.3233 H   0  0
   -0.4556    0.4475   -0.2867 H   0  0
    4.0398   -0.8100   -0.6318 H   0  0
    4.9712    0.6712   -0.3053 H   0  0
    3.8561   -0.2331    2.1268 H   0  0
    7.8241   -3.5020    5.6338 H   0  0
    3.7938   -0.6574    3.7729 H   0  0
    1.8384   -1.1110    5.3532 H   0  0
    1.1281   -0.9225    7.7015 H   0  0
    2.8073   -0.6501    9.4800 H   0  0
    5.9239   -0.7633    6.5689 H   0  0
    6.4494   -1.3539   -0.2454 H   0  0
  1  6  4  0
  1  2  4  0
  1 26  1  0
  2  3  4  0
  2 27  1  0
  3  4  4  0
  3 28  1  0
  4  5  4  0
  4  7  1  0
  5  6  4  0
  5 29  1  0
  6 30  1  0
  7  8  1  0
  7 31  1  0
  7 32  1  0
  8  9  1  0
  8 33  1  0
  9 10  2  0
  9 17  1  0
 10 11  4  0
 10 15  4  0
 11 12  4  0
 11 18  1  0
 12 13  4  0
 13 14  4  0
 13 34  1  0
 14 15  4  0
 15 16  2  0
 16 17  1  0
 17 40  1  0
 18 19  1  0
 18 35  1  0
 19 24  4  0
 19 20  4  0
 20 21  4  0
 20 36  1  0
 21 22  4  0
 21 37  1  0
 22 23  4  0
 22 38  1  0
 23 24  4  0
 23 25  1  0
 24 39  1  0
M  END
> <Name>
CHEMBL121796

$$$$
CHEMBL281872
  SciTegic01042610103D

 45 48  0  0  0  0            999 V2000
   -0.2875    1.4782   -0.1531 C   0  0
   -0.5676    0.0890   -0.3366 O   0  0
   -0.0342   -0.5084   -1.4356 C   0  0
    0.7340    0.2233   -2.2963 C   0  0
    1.2840   -0.3908   -3.4277 C   0  0
    1.0416   -1.7651   -3.6737 C   0  0
    0.2513   -2.4958   -2.7783 C   0  0
   -0.2739   -1.8695   -1.6696 C   0  0
   -1.0368   -2.5773   -0.7965 O   0  0
   -1.2448   -3.9603   -1.0898 C   0  0
   -2.1213   -4.5861   -0.0031 C   0  0
   -2.3344   -6.0039   -0.3038 N   0  0
   -2.0697   -7.0390    0.5265 C   0  0
   -2.4132   -8.1610   -0.1482 C   0  0
   -2.8653   -7.7626   -1.3425 N   0  0
   -2.8109   -6.4787   -1.4012 N   0  0
    1.5812   -2.3296   -4.7656 N   0  0
    2.3179   -1.6195   -5.5863 C   0  0
    2.5714   -0.3343   -5.3971 N   0  0
    2.0870    0.3212   -4.3503 C   0  0
    2.3588    1.6617   -4.1660 N   0  0
    3.0388    2.3804   -5.1559 C   0  0
    3.0997    1.8903   -6.4535 C   0  0
    3.7710    2.6018   -7.4288 C   0  0
    4.3830    3.8023   -7.1148 C   0  0
    4.3250    4.2947   -5.8231 C   0  0
    3.6500    3.5899   -4.8433 C   0  0
    3.5884    4.0733   -3.5832 F   0  0
    5.3012    4.7718   -8.4537 Br  0  0
    0.7897    1.6240   -0.0719 H   0  0
   -0.6671    2.0411   -1.0058 H   0  0
   -0.7713    1.8291    0.7584 H   0  0
    0.9158    1.2705   -2.1049 H   0  0
    0.0584   -3.5439   -2.9535 H   0  0
   -1.7400   -4.0563   -2.0561 H   0  0
   -0.2836   -4.4735   -1.1216 H   0  0
   -1.6260   -4.4901    0.9632 H   0  0
   -3.0824   -4.0729    0.0287 H   0  0
   -1.6653   -6.9816    1.5262 H   0  0
   -2.3369   -9.1779    0.2075 H   0  0
    2.7366   -2.1054   -6.4552 H   0  0
    2.0786    2.1058   -3.3504 H   0  0
    2.6228    0.9532   -6.7000 H   0  0
    3.8186    2.2201   -8.4380 H   0  0
    4.8039    5.2319   -5.5808 H   0  0
  1  2  1  0
  1 30  1  0
  1 31  1  0
  1 32  1  0
  2  3  1  0
  3  8  4  0
  3  4  4  0
  4  5  4  0
  4 33  1  0
  5 20  4  0
  5  6  4  0
  6  7  4  0
  6 17  4  0
  7  8  4  0
  7 34  1  0
  8  9  1  0
  9 10  1  0
 10 11  1  0
 10 35  1  0
 10 36  1  0
 11 12  1  0
 11 37  1  0
 11 38  1  0
 12 16  1  0
 12 13  1  0
 13 14  2  0
 13 39  1  0
 14 15  1  0
 14 40  1  0
 15 16  2  0
 17 18  4  0
 18 19  4  0
 18 41  1  0
 19 20  4  0
 20 21  1  0
 21 22  1  0
 21 42  1  0
 22 27  4  0
 22 23  4  0
 23 24  4  0
 23 43  1  0
 24 25  4  0
 24 44  1  0
 25 26  4  0
 25 29  1  0
 26 27  4  0
 26 45  1  0
 27 28  1  0
M  END
> <Name>
CHEMBL281872

$$$$
CHEMBL516375
  SciTegic01042610103D

 51 54  0  0  0  0            999 V2000
    1.0818    3.1027    0.0962 C   0  0
    0.7848    1.3165   -0.0135 S   0  0
    1.4475    0.6832    1.0723 O   0  0
   -0.6086    1.1027   -0.1921 O   0  0
    1.6365    0.8622   -1.5493 C   0  0
    1.4804   -0.6400   -1.7939 C   0  0
    2.1701   -1.0079   -3.0376 N   0  0
    2.0412   -2.4465   -3.3054 C   0  0
    2.7596   -2.7855   -4.5860 C   0  0
    4.0057   -3.1485   -4.7436 N   0  0
    4.4997   -3.4164   -5.9441 C   0  0
    3.6376   -3.2924   -7.0008 C   0  0
    2.1472   -2.7941   -6.1533 S   0  0
    5.9120   -3.8284   -6.1330 C   0  0
    6.3928   -4.0960   -7.4235 C   0  0
    7.6837   -4.4754   -7.6235 C   0  0
    8.5525   -4.6032   -6.5298 C   0  0
    8.0757   -4.3351   -5.2227 C   0  0
    6.7483   -3.9408   -5.0344 C   0  0
    8.9786   -4.4730   -4.1394 C   0  0
   10.2235   -4.8460   -4.4050 N   0  0
   10.6234   -5.0857   -5.6434 C   0  0
    9.8321   -4.9743   -6.6839 N   0  0
    8.5741   -4.2256   -2.8440 N   0  0
    9.5081   -4.2497   -1.8029 C   0  0
    9.1430   -4.7305   -0.5519 C   0  0
   10.0664   -4.7540    0.4748 C   0  0
   11.3560   -4.2987    0.2583 C   0  0
   11.7229   -3.8181   -0.9884 C   0  0
   10.8031   -3.7983   -2.0202 C   0  0
   13.3401   -3.2468   -1.2566 Cl  0  0
   12.2576   -4.3227    1.2642 F   0  0
    2.1546    3.2907    0.1384 H   0  0
    0.6607    3.5955   -0.7802 H   0  0
    0.6084    3.4951    0.9962 H   0  0
    1.2011    1.4132   -2.3829 H   0  0
    2.6949    1.1085   -1.4643 H   0  0
    1.9158   -1.1910   -0.9603 H   0  0
    0.4220   -0.8862   -1.8789 H   0  0
    1.8284   -0.4633   -3.8153 H   0  0
    2.4806   -3.0101   -2.4823 H   0  0
    0.9867   -2.7053   -3.4008 H   0  0
    3.8102   -3.4549   -8.0545 H   0  0
    5.7287   -3.9997   -8.2698 H   0  0
    8.0390   -4.6782   -8.6230 H   0  0
    6.3773   -3.7297   -4.0423 H   0  0
   11.6480   -5.3868   -5.8049 H   0  0
    7.6419   -4.0350   -2.6550 H   0  0
    8.1372   -5.0855   -0.3821 H   0  0
    9.7822   -5.1276    1.4475 H   0  0
   11.0904   -3.4282   -2.9933 H   0  0
  1  2  1  0
  1 33  1  0
  1 34  1  0
  1 35  1  0
  2  3  2  0
  2  4  2  0
  2  5  1  0
  5  6  1  0
  5 36  1  0
  5 37  1  0
  6  7  1  0
  6 38  1  0
  6 39  1  0
  7  8  1  0
  7 40  1  0
  8  9  1  0
  8 41  1  0
  8 42  1  0
  9 13  1  0
  9 10  2  0
 10 11  1  0
 11 12  2  0
 11 14  1  0
 12 13  1  0
 12 43  1  0
 14 19  4  0
 14 15  4  0
 15 16  4  0
 15 44  1  0
 16 17  4  0
 16 45  1  0
 17 23  4  0
 17 18  4  0
 18 19  4  0
 18 20  4  0
 19 46  1  0
 20 21  4  0
 20 24  1  0
 21 22  4  0
 22 23  4  0
 22 47  1  0
 24 25  1  0
 24 48  1  0
 25 30  4  0
 25 26  4  0
 26 27  4  0
 26 49  1  0
 27 28  4  0
 27 50  1  0
 28 29  4  0
 28 32  1  0
 29 30  4  0
 29 31  1  0
 30 51  1  0
M  END
> <Name>
CHEMBL516375

$$$$
CHEMBL1080812
  SciTegic01042610103D

 65 69  0  0  0  0            999 V2000
   -0.6067    1.4748   -0.0386 C   0  0
   -0.4851   -0.0273   -0.0386 C   0  0
   -0.2244   -0.8407   -1.1595 C   0  0
   -0.1948   -2.1768   -0.7029 C   0  0
    0.0498   -3.1782   -1.6423 C   0  0
    0.2420   -2.8530   -2.9030 N   0  0
    0.2172   -1.6439   -3.3280 N   0  0
   -0.0054   -0.6096   -2.5306 C   0  0
   -0.0228    0.6796   -3.0386 N   0  0
    0.0733    0.8892   -4.4192 C   0  0
   -0.5147   -0.0087   -5.3008 C   0  0
   -0.4197    0.1984   -6.6629 C   0  0
    0.2626    1.3027   -7.1512 C   0  0
    0.8510    2.2006   -6.2714 C   0  0
    0.7515    1.9980   -4.9079 C   0  0
    1.7058    3.5820   -6.8835 Cl  0  0
    0.3555    1.5057   -8.4929 O   0  0
   -0.2732    0.5416   -9.3399 C   0  0
   -0.0668    0.9291  -10.7816 C   0  0
    0.6505    2.0708  -11.0861 C   0  0
    0.8347    2.4183  -12.4154 C   0  0
    0.2880    1.6009  -13.3932 C   0  0
   -0.4171    0.4750  -13.0127 C   0  0
   -0.5679    0.1723  -11.7379 N   0  0
   -0.4303   -2.1542    0.6442 N   0  0
   -0.4671   -2.9309    1.2240 H   0  0
   -0.6014   -0.8426    1.0448 C   0  0
   -0.8696   -0.3991    2.4211 C   0  0
   -1.0067    0.7852    2.6627 O   0  0
   -0.9633   -1.3049    3.4147 N   0  0
   -1.2305   -0.8632    4.7858 C   0  0
   -1.2875   -2.0799    5.7116 C   0  0
   -1.5554   -1.6369    7.0864 N   0  0
   -0.4293   -0.8547    7.6167 C   0  0
   -0.7743   -0.3640    9.0253 C   0  0
   -1.0900   -1.4874    9.8520 O   0  0
   -2.1827   -2.2713    9.3654 C   0  0
   -1.8520   -2.7813    7.9603 C   0  0
    0.3741    1.9187    0.1318 H   0  0
   -0.9940    1.8080   -1.0014 H   0  0
   -1.2881    1.7841    0.7539 H   0  0
    0.0815   -4.2137   -1.3371 H   0  0
   -0.1014    1.4368   -2.4374 H   0  0
   -1.0458   -0.8690   -4.9211 H   0  0
   -0.8767   -0.5002   -7.3481 H   0  0
    1.2051    2.6990   -4.2230 H   0  0
    0.1655   -0.4401   -9.1612 H   0  0
   -1.3406    0.5078   -9.1221 H   0  0
    1.0620    2.6845  -10.2984 H   0  0
    1.3904    3.3048  -12.6832 H   0  0
    0.4115    1.8413  -14.4388 H   0  0
   -0.8459   -0.1668  -13.7681 H   0  0
   -0.8539   -2.2493    3.2221 H   0  0
   -0.4348   -0.1942    5.1135 H   0  0
   -2.1843   -0.3366    4.8185 H   0  0
   -2.0832   -2.7489    5.3839 H   0  0
   -0.3337   -2.6064    5.6789 H   0  0
    0.4618   -1.4811    7.6576 H   0  0
   -0.2436    0.0016    6.9683 H   0  0
    0.0796    0.1680    9.4447 H   0  0
   -1.6332    0.3055    8.9773 H   0  0
   -2.3475   -3.1188   10.0308 H   0  0
   -3.0826   -1.6574    9.3273 H   0  0
   -2.7048   -3.3315    7.5627 H   0  0
   -0.9837   -3.4386    8.0067 H   0  0
  1  2  1  0
  1 39  1  0
  1 40  1  0
  1 41  1  0
  2 27  2  0
  2  3  1  0
  3  8  4  0
  3  4  4  0
  4  5  4  0
  4 25  1  0
  5  6  4  0
  5 42  1  0
  6  7  4  0
  7  8  4  0
  8  9  1  0
  9 10  1  0
  9 43  1  0
 10 15  4  0
 10 11  4  0
 11 12  4  0
 11 44  1  0
 12 13  4  0
 12 45  1  0
 13 14  4  0
 13 17  1  0
 14 15  4  0
 14 16  1  0
 15 46  1  0
 17 18  1  0
 18 19  1  0
 18 47  1  0
 18 48  1  0
 19 24  4  0
 19 20  4  0
 20 21  4  0
 20 49  1  0
 21 22  4  0
 21 50  1  0
 22 23  4  0
 22 51  1  0
 23 24  4  0
 23 52  1  0
 25 26  1  0
 25 27  1  0
 27 28  1  0
 28 29  2  0
 28 30  1  0
 30 31  1  0
 30 53  1  0
 31 32  1  0
 31 54  1  0
 31 55  1  0
 32 33  1  0
 32 56  1  0
 32 57  1  0
 33 38  1  0
 33 34  1  0
 34 35  1  0
 34 58  1  0
 34 59  1  0
 35 36  1  0
 35 60  1  0
 35 61  1  0
 36 37  1  0
 37 38  1  0
 37 62  1  0
 37 63  1  0
 38 64  1  0
 38 65  1  0
M  END
> <Name>
CHEMBL1080812

$$$$
CHEMBL311129
  SciTegic01042610103D

 39 42  0  0  0  0            999 V2000
   -0.6190    1.4727   -0.0396 C   0  0
   -0.4901   -0.0287   -0.0390 C   0  0
   -0.2176   -0.8788   -1.1920 C   0  0
   -0.1863   -2.2033   -0.7127 C   0  0
   -0.4230   -2.1570    0.6341 N   0  0
   -0.4572   -2.9291    1.2203 H   0  0
   -0.5995   -0.8502    1.0357 C   0  0
   -0.8696   -0.4118    2.4216 C   0  0
   -0.1892    0.6837    2.9554 C   0  0
   -0.4460    1.0876    4.2493 C   0  0
   -1.3755    0.4092    5.0175 C   0  0
   -2.0531   -0.6779    4.4945 C   0  0
   -1.8102   -1.0882    3.1999 C   0  0
    0.0482   -3.1875   -1.5786 N   0  0
    0.2462   -2.9289   -2.8536 C   0  0
    0.2260   -1.7036   -3.3456 N   0  0
    0.0000   -0.6534   -2.5615 C   0  0
   -0.0211    0.6287   -3.0816 N   0  0
    0.0756    0.8246   -4.4621 C   0  0
    0.7592    1.9257   -4.9627 C   0  0
    0.8533    2.1169   -6.3271 C   0  0
    0.2681    1.2139   -7.1956 C   0  0
   -0.4137    0.1159   -6.7009 C   0  0
   -0.5064   -0.0841   -5.3362 C   0  0
   -1.1468   -1.0151   -7.7951 Cl  0  0
    0.3598    1.9215    0.1298 H   0  0
   -1.0087    1.8036   -1.0022 H   0  0
   -1.3012    1.7792    0.7534 H   0  0
    0.5368    1.2138    2.3570 H   0  0
    0.0801    1.9349    4.6637 H   0  0
   -1.5728    0.7294    6.0299 H   0  0
   -2.7772   -1.2033    5.0994 H   0  0
   -2.3433   -1.9339    2.7912 H   0  0
    0.4334   -3.7533   -3.5257 H   0  0
   -0.1031    1.3915   -2.4880 H   0  0
    1.2164    2.6318   -4.2853 H   0  0
    1.3843    2.9730   -6.7163 H   0  0
    0.3429    1.3661   -8.2622 H   0  0
   -1.0344   -0.9436   -4.9503 H   0  0
  1  2  1  0
  1 26  1  0
  1 27  1  0
  1 28  1  0
  2  7  2  0
  2  3  1  0
  3 17  4  0
  3  4  4  0
  4  5  1  0
  4 14  4  0
  5  6  1  0
  5  7  1  0
  7  8  1  0
  8 13  4  0
  8  9  4  0
  9 10  4  0
  9 29  1  0
 10 11  4  0
 10 30  1  0
 11 12  4  0
 11 31  1  0
 12 13  4  0
 12 32  1  0
 13 33  1  0
 14 15  4  0
 15 16  4  0
 15 34  1  0
 16 17  4  0
 17 18  1  0
 18 19  1  0
 18 35  1  0
 19 24  4  0
 19 20  4  0
 20 21  4  0
 20 36  1  0
 21 22  4  0
 21 37  1  0
 22 23  4  0
 22 38  1  0
 23 24  4  0
 23 25  1  0
 24 39  1  0
M  END
> <Name>
CHEMBL311129

$$$$
CHEMBL178199
  SciTegic01042610103D

 74 77  0  0  0  0            999 V2000
    3.4777   -2.0803    3.6640 C   0  0
    2.7071   -2.8017    2.5565 C   0  0
    1.3942   -3.1222    3.0207 O   0  0
    0.5741   -3.7698    2.1527 C   0  0
    1.0302   -4.0888    0.8946 C   0  0
    0.1880   -4.7577   -0.0066 C   0  0
   -1.1269   -5.0964    0.3953 C   0  0
   -1.5738   -4.7634    1.6820 C   0  0
   -0.7275   -4.1115    2.5509 C   0  0
   -1.1700   -3.7832    3.8377 N   0  0
   -2.4793   -3.5561    4.0627 C   0  0
   -3.2894   -3.7365    3.1735 O   0  0
   -2.9285   -3.0902    5.3833 C   0  0
   -4.2207   -2.8661    5.6053 C   0  0
   -4.6810   -2.3887    6.9585 C   0  0
   -5.4527   -1.1483    6.8037 N   0  0
   -6.0020   -0.7476    8.1059 C   0  0
   -4.5751   -0.0859    6.2947 C   0  0
   -1.9717   -5.7707   -0.5171 C   0  0
   -1.4560   -6.0718   -1.7870 C   0  0
   -0.1393   -5.6978   -2.1000 C   0  0
    0.6206   -5.0748   -1.2360 N   0  0
   -2.2638   -6.7536   -2.7530 C   0  0
   -2.9046   -7.2945   -3.5194 N   0  0
   -3.2606   -6.1213   -0.1697 N   0  0
   -3.5474   -7.4341    0.2206 C   0  0
   -2.5209   -8.2803    0.6202 C   0  0
   -2.8044   -9.5756    1.0057 C   0  0
   -4.1139  -10.0326    0.9939 C   0  0
   -5.1407   -9.1883    0.5944 C   0  0
   -4.8592   -7.8899    0.2142 C   0  0
   -6.7793   -9.7615    0.5788 Cl  0  0
   -4.3919  -11.3087    1.3734 O   0  0
   -3.2869  -12.1224    1.7720 C   0  0
   -3.7918  -13.5133    2.1610 C   0  0
   -2.6265  -14.3713    2.5813 C   0  0
   -1.9503  -15.1271    1.6419 C   0  0
   -0.8813  -15.9142    2.0275 C   0  0
   -0.4883  -15.9452    3.3524 C   0  0
   -1.1639  -15.1888    4.2917 C   0  0
   -2.2302  -14.3984    3.9054 C   0  0
    4.4792   -1.8359    3.3099 H   0  0
    2.9537   -1.1633    3.9333 H   0  0
    3.5493   -2.7279    4.5379 H   0  0
    2.6355   -2.1542    1.6826 H   0  0
    3.2312   -3.7188    2.2872 H   0  0
    2.0353   -3.8243    0.6007 H   0  0
   -2.5763   -5.0200    1.9913 H   0  0
   -0.5342   -3.7192    4.5676 H   0  0
   -2.2092   -2.9301    6.1728 H   0  0
   -4.9400   -3.0263    4.8158 H   0  0
   -5.3085   -3.1519    7.4190 H   0  0
   -3.8140   -2.2006    7.5917 H   0  0
   -5.1859   -0.5824    8.8093 H   0  0
   -6.5746    0.1727    7.9910 H   0  0
   -6.6532   -1.5359    8.4836 H   0  0
   -3.7589    0.0793    6.9980 H   0  0
   -4.1674   -0.3832    5.3285 H   0  0
   -5.1476    0.8344    6.1798 H   0  0
    0.2559   -5.9303   -3.0778 H   0  0
   -3.9676   -5.4577   -0.1960 H   0  0
   -1.5010   -7.9252    0.6290 H   0  0
   -2.0060  -10.2333    1.3163 H   0  0
   -5.6585   -7.2313   -0.0921 H   0  0
   -2.5828  -12.2097    0.9444 H   0  0
   -2.7883  -11.6647    2.6264 H   0  0
   -4.4959  -13.4259    2.9885 H   0  0
   -4.2904  -13.9709    1.3065 H   0  0
   -2.2573  -15.1028    0.6068 H   0  0
   -0.3534  -16.5051    1.2936 H   0  0
    0.3465  -16.5607    3.6538 H   0  0
   -0.8570  -15.2133    5.3269 H   0  0
   -2.7557  -13.8045    4.6386 H   0  0
   -6.2082   -1.3012    6.1526 H   0  0
  1  2  1  0
  1 42  1  0
  1 43  1  0
  1 44  1  0
  2  3  1  0
  2 45  1  0
  2 46  1  0
  3  4  1  0
  4  9  4  0
  4  5  4  0
  5  6  4  0
  5 47  1  0
  6 22  4  0
  6  7  4  0
  7  8  4  0
  7 19  4  0
  8  9  4  0
  8 48  1  0
  9 10  1  0
 10 11  1  0
 10 49  1  0
 11 12  2  0
 11 13  1  0
 13 14  2  0
 13 50  1  0
 14 15  1  0
 14 51  1  0
 15 16  1  0
 15 52  1  0
 15 53  1  0
 16 17  1  0
 16 18  1  0
 16 74  1  0
 17 54  1  0
 17 55  1  0
 17 56  1  0
 18 57  1  0
 18 58  1  0
 18 59  1  0
 19 20  4  0
 19 25  1  0
 20 21  4  0
 20 23  1  0
 21 22  4  0
 21 60  1  0
 23 24  3  0
 25 26  1  0
 25 61  1  0
 26 31  4  0
 26 27  4  0
 27 28  4  0
 27 62  1  0
 28 29  4  0
 28 63  1  0
 29 30  4  0
 29 33  1  0
 30 31  4  0
 30 32  1  0
 31 64  1  0
 33 34  1  0
 34 35  1  0
 34 65  1  0
 34 66  1  0
 35 36  1  0
 35 67  1  0
 35 68  1  0
 36 41  4  0
 36 37  4  0
 37 38  4  0
 37 69  1  0
 38 39  4  0
 38 70  1  0
 39 40  4  0
 39 71  1  0
 40 41  4  0
 40 72  1  0
 41 73  1  0
M  END
> <Name>
CHEMBL178199

$$$$
CHEMBL179652
  SciTegic01042610103D

 74 78  0  0  0  0            999 V2000
    1.4499   -2.0693   -4.8310 C   0  0
    0.9004   -2.8006   -3.6045 C   0  0
    1.9708   -3.0889   -2.7028 O   0  0
    1.6512   -3.7406   -1.5545 C   0  0
    0.3435   -4.0936   -1.3136 C   0  0
    0.0071   -4.7673   -0.1296 C   0  0
    1.0251   -5.0755    0.8051 C   0  0
    2.3525   -4.7079    0.5419 C   0  0
    2.6594   -4.0518   -0.6291 C   0  0
    3.9847   -3.6887   -0.8962 N   0  0
    4.8317   -3.4344    0.1209 C   0  0
    4.4761   -3.6195    1.2693 O   0  0
    6.1860   -2.9332   -0.1578 C   0  0
    7.0219   -2.6822    0.8459 C   0  0
    8.4096   -2.1686    0.5603 C   0  0
    8.6309   -0.9187    1.2996 N   0  0
   10.0213   -0.4813    1.1170 C   0  0
    7.7211    0.1175    0.7931 C   0  0
    0.6804   -5.7547    1.9970 C   0  0
   -0.6679   -6.0911    2.1923 C   0  0
   -1.6111   -5.7458    1.2111 C   0  0
   -1.2640   -5.1174    0.1170 N   0  0
   -1.0773   -6.7796    3.3792 C   0  0
   -1.4022   -7.3258    4.3209 N   0  0
    1.6387   -6.0764    2.9368 N   0  0
    2.1535   -7.3767    2.9944 C   0  0
    2.0050   -8.2319    1.9031 C   0  0
    2.5055   -9.5133    1.9439 C   0  0
    3.1665   -9.9666    3.0812 C   0  0
    3.3184   -9.1073    4.1840 C   0  0
    2.8125   -7.8069    4.1310 C   0  0
    4.0448   -9.8747    5.1989 C   0  0
    4.2786  -11.0903    4.6796 C   0  0
    3.7616  -11.1649    3.4153 N   0  0
    3.8300  -12.3421    2.5459 C   0  0
    5.0207  -12.2216    1.6300 C   0  0
    4.8878  -11.6021    0.4015 C   0  0
    5.9799  -11.4916   -0.4387 C   0  0
    7.2051  -12.0003   -0.0500 C   0  0
    7.3383  -12.6190    1.1789 C   0  0
    6.2471  -12.7257    2.0209 C   0  0
    2.1858   -2.6995   -5.3303 H   0  0
    0.6334   -1.8494   -5.5189 H   0  0
    1.9218   -1.1381   -4.5177 H   0  0
    0.1645   -2.1703   -3.1052 H   0  0
    0.4285   -3.7318   -3.9179 H   0  0
   -0.4233   -3.8521   -2.0348 H   0  0
    3.1311   -4.9416    1.2529 H   0  0
    4.2935   -3.6201   -1.8131 H   0  0
    6.5017   -2.7688   -1.1775 H   0  0
    6.7062   -2.8466    1.8656 H   0  0
    9.1435   -2.9110    0.8739 H   0  0
    8.5152   -1.9822   -0.5084 H   0  0
   10.2137   -0.3154    0.0570 H   0  0
   10.1855    0.4462    1.6656 H   0  0
   10.6964   -1.2501    1.4928 H   0  0
    6.6894   -0.2070    0.9286 H   0  0
    7.8853    1.0450    1.3417 H   0  0
    7.9135    0.2834   -0.2669 H   0  0
   -2.6483   -6.0054    1.3630 H   0  0
    1.9553   -5.4014    3.5573 H   0  0
    1.4922   -7.8857    1.0179 H   0  0
    2.3849  -10.1673    1.0930 H   0  0
    2.9312   -7.1428    4.9744 H   0  0
    4.3373   -9.5278    6.1790 H   0  0
    4.7984  -11.8908    5.1850 H   0  0
    3.9306  -13.2394    3.1566 H   0  0
    2.9191  -12.4078    1.9509 H   0  0
    3.9305  -11.2047    0.0979 H   0  0
    5.8759  -11.0082   -1.3988 H   0  0
    8.0583  -11.9146   -0.7067 H   0  0
    8.2954  -13.0167    1.4824 H   0  0
    6.3520  -13.2058    2.9826 H   0  0
    8.4528   -1.0722    2.2808 H   0  0
  1  2  1  0
  1 42  1  0
  1 43  1  0
  1 44  1  0
  2  3  1  0
  2 45  1  0
  2 46  1  0
  3  4  1  0
  4  9  4  0
  4  5  4  0
  5  6  4  0
  5 47  1  0
  6 22  4  0
  6  7  4  0
  7  8  4  0
  7 19  4  0
  8  9  4  0
  8 48  1  0
  9 10  1  0
 10 11  1  0
 10 49  1  0
 11 12  2  0
 11 13  1  0
 13 14  2  0
 13 50  1  0
 14 15  1  0
 14 51  1  0
 15 16  1  0
 15 52  1  0
 15 53  1  0
 16 17  1  0
 16 18  1  0
 16 74  1  0
 17 54  1  0
 17 55  1  0
 17 56  1  0
 18 57  1  0
 18 58  1  0
 18 59  1  0
 19 20  4  0
 19 25  1  0
 20 21  4  0
 20 23  1  0
 21 22  4  0
 21 60  1  0
 23 24  3  0
 25 26  1  0
 25 61  1  0
 26 31  4  0
 26 27  4  0
 27 28  4  0
 27 62  1  0
 28 29  4  0
 28 63  1  0
 29 34  1  0
 29 30  4  0
 30 31  4  0
 30 32  1  0
 31 64  1  0
 32 33  2  0
 32 65  1  0
 33 34  1  0
 33 66  1  0
 34 35  1  0
 35 36  1  0
 35 67  1  0
 35 68  1  0
 36 41  4  0
 36 37  4  0
 37 38  4  0
 37 69  1  0
 38 39  4  0
 38 70  1  0
 39 40  4  0
 39 71  1  0
 40 41  4  0
 40 72  1  0
 41 73  1  0
M  END
> <Name>
CHEMBL179652

$$$$
CHEMBL25610
  SciTegic01042610103D

 52 55  0  0  0  0            999 V2000
   -0.2180    2.0117   -0.7679 C   0  0
   -0.0734    0.6117   -0.5205 O   0  0
   -1.2161   -0.1095   -0.3682 C   0  0
   -2.4270    0.5160   -0.4610 C   0  0
   -3.6041   -0.2255   -0.3044 C   0  0
   -3.5335   -1.6179   -0.0510 C   0  0
   -2.2817   -2.2384    0.0402 C   0  0
   -1.1385   -1.4875   -0.1234 C   0  0
    0.0773   -2.0879   -0.0409 O   0  0
    0.0905   -3.4946    0.2104 C   0  0
    1.5373   -3.9886    0.2692 C   0  0
    2.2240   -3.3587    1.4048 N   0  0
    3.6835   -3.4263    1.2413 C   0  0
    4.3568   -2.7079    2.4136 C   0  0
    3.9216   -3.2983    3.6414 O   0  0
    2.5053   -3.2493    3.8336 C   0  0
    1.8132   -3.9732    2.6756 C   0  0
   -4.6770   -2.3056    0.0947 N   0  0
   -5.8354   -1.6968    0.0035 C   0  0
   -5.9501   -0.3995   -0.2322 N   0  0
   -4.8835    0.3732   -0.3916 C   0  0
   -5.0180    1.7249   -0.6360 N   0  0
   -6.2843    2.3202   -0.5989 C   0  0
   -7.3314    1.6875    0.0574 C   0  0
   -8.5801    2.2772    0.0931 C   0  0
   -8.7891    3.4979   -0.5243 C   0  0
   -7.7485    4.1320   -1.1800 C   0  0
   -6.4947    3.5495   -1.2143 C   0  0
   -5.4772    4.1709   -1.8497 F   0  0
  -10.3601    4.2350   -0.4766 Cl  0  0
    0.7675    2.4664   -0.8693 H   0  0
   -0.7837    2.1617   -1.6874 H   0  0
   -0.7479    2.4749    0.0644 H   0  0
   -2.4761    1.5775   -0.6540 H   0  0
   -2.2130   -3.2988    0.2329 H   0  0
   -0.4020   -3.6985    1.1612 H   0  0
   -0.4378   -4.0117   -0.5906 H   0  0
    1.5467   -5.0714    0.3941 H   0  0
    2.0491   -3.7252   -0.6564 H   0  0
    3.9998   -4.4693    1.2235 H   0  0
    3.9678   -2.9431    0.3065 H   0  0
    5.4390   -2.8046    2.3267 H   0  0
    4.0828   -1.6530    2.3998 H   0  0
    2.2484   -3.7376    4.7736 H   0  0
    2.1774   -2.2101    3.8610 H   0  0
    0.7323   -3.8892    2.7879 H   0  0
    2.0997   -5.0249    2.6807 H   0  0
   -6.7358   -2.2804    0.1259 H   0  0
   -4.2351    2.2623   -0.8336 H   0  0
   -7.1699    0.7346    0.5394 H   0  0
   -9.3946    1.7846    0.6034 H   0  0
   -7.9145    5.0843   -1.6616 H   0  0
  1  2  1  0
  1 31  1  0
  1 32  1  0
  1 33  1  0
  2  3  1  0
  3  8  4  0
  3  4  4  0
  4  5  4  0
  4 34  1  0
  5 21  4  0
  5  6  4  0
  6  7  4  0
  6 18  4  0
  7  8  4  0
  7 35  1  0
  8  9  1  0
  9 10  1  0
 10 11  1  0
 10 36  1  0
 10 37  1  0
 11 12  1  0
 11 38  1  0
 11 39  1  0
 12 17  1  0
 12 13  1  0
 13 14  1  0
 13 40  1  0
 13 41  1  0
 14 15  1  0
 14 42  1  0
 14 43  1  0
 15 16  1  0
 16 17  1  0
 16 44  1  0
 16 45  1  0
 17 46  1  0
 17 47  1  0
 18 19  4  0
 19 20  4  0
 19 48  1  0
 20 21  4  0
 21 22  1  0
 22 23  1  0
 22 49  1  0
 23 28  4  0
 23 24  4  0
 24 25  4  0
 24 50  1  0
 25 26  4  0
 25 51  1  0
 26 27  4  0
 26 30  1  0
 27 28  4  0
 27 52  1  0
 28 29  1  0
M  END
> <Name>
CHEMBL25610

$$$$
CHEMBL51228
  SciTegic01042610103D

 45 48  0  0  0  0            999 V2000
    1.0896   -0.4682    0.7393 C   0  0
    2.2784    0.2351    0.7268 C   0  0
    2.3813    1.4099   -0.0072 C   0  0
    1.2874    1.8739   -0.7269 C   0  0
    0.1011    1.1658   -0.7103 C   0  0
    0.0024   -0.0043    0.0222 C   0  0
   -1.3889    1.7959   -1.6894 Br  0  0
    3.5827    2.1238   -0.0212 N   0  0
    4.7857    1.4524    0.0679 C   0  0
    6.0514    2.1748    0.1768 C   0  0
    7.2400    1.4099    0.2637 C   0  0
    8.4642    2.0942    0.3688 C   0  0
    8.4457    3.4111    0.3813 N   0  0
    7.3068    4.0942    0.2975 C   0  0
    6.1298    3.5034    0.1967 N   0  0
    7.3576    5.4777    0.3168 N   0  0
    8.6482    6.1618    0.4277 C   0  0
    8.4249    7.6755    0.4264 C   0  0
    9.7728    8.3900    0.5423 C   0  0
    9.5589    9.8393    0.5410 N   0  0
    9.5224   10.6540   -0.5584 C   0  0
    9.3028   11.9045   -0.1095 C   0  0
    9.2077   11.8548    1.2275 N   0  0
    9.3551   10.6201    1.6238 C   0  0
    7.1514    0.0757    0.2420 N   0  0
    5.9884   -0.5203    0.1422 C   0  0
    4.8366    0.1263    0.0634 N   0  0
    1.0107   -1.3839    1.3063 H   0  0
    3.1270   -0.1279    1.2876 H   0  0
    1.3641    2.7871   -1.2983 H   0  0
   -0.9257   -0.5564    0.0334 H   0  0
    3.5713    3.0910   -0.0936 H   0  0
    9.3964    1.5532    0.4379 H   0  0
    6.5385    5.9939    0.2568 H   0  0
    9.1369    5.8675    1.3565 H   0  0
    9.2790    5.8869   -0.4177 H   0  0
    7.9363    7.9698   -0.5024 H   0  0
    7.7941    7.9504    1.2718 H   0  0
   10.2614    8.0956    1.4711 H   0  0
   10.4036    8.1151   -0.3031 H   0  0
    9.6464   10.3520   -1.5878 H   0  0
    9.2180   12.7919   -0.7192 H   0  0
    9.3222   10.2797    2.6482 H   0  0
    5.9687   -1.6001    0.1288 H   0  0
    9.0505   12.6158    1.8080 H   0  0
  1  6  4  0
  1  2  4  0
  1 28  1  0
  2  3  4  0
  2 29  1  0
  3  4  4  0
  3  8  1  0
  4  5  4  0
  4 30  1  0
  5  6  4  0
  5  7  1  0
  6 31  1  0
  8  9  1  0
  8 32  1  0
  9 27  4  0
  9 10  4  0
 10 15  4  0
 10 11  4  0
 11 12  4  0
 11 25  4  0
 12 13  4  0
 12 33  1  0
 13 14  4  0
 14 15  4  0
 14 16  1  0
 16 17  1  0
 16 34  1  0
 17 18  1  0
 17 35  1  0
 17 36  1  0
 18 19  1  0
 18 37  1  0
 18 38  1  0
 19 20  1  0
 19 39  1  0
 19 40  1  0
 20 24  1  0
 20 21  1  0
 21 22  2  0
 21 41  1  0
 22 23  1  0
 22 42  1  0
 23 24  2  0
 23 45  1  0
 24 43  1  0
 25 26  4  0
 26 27  4  0
 26 44  1  0
M  END
> <Name>
CHEMBL51228

$$$$
CHEMBL178312
  SciTegic01042610103D

 75 79  0  0  0  0            999 V2000
    3.4777   -2.0803    3.6640 C   0  0
    2.7071   -2.8017    2.5565 C   0  0
    1.3942   -3.1222    3.0207 O   0  0
    0.5741   -3.7698    2.1527 C   0  0
    1.0302   -4.0888    0.8946 C   0  0
    0.1880   -4.7577   -0.0066 C   0  0
   -1.1269   -5.0964    0.3953 C   0  0
   -1.5738   -4.7634    1.6820 C   0  0
   -0.7275   -4.1115    2.5509 C   0  0
   -1.1700   -3.7832    3.8377 N   0  0
   -2.4793   -3.5561    4.0627 C   0  0
   -3.2894   -3.7365    3.1735 O   0  0
   -2.9285   -3.0902    5.3833 C   0  0
   -4.2207   -2.8661    5.6053 C   0  0
   -4.6810   -2.3887    6.9585 C   0  0
   -5.4527   -1.1483    6.8037 N   0  0
   -6.7415   -1.4287    6.1207 C   0  0
   -7.6293   -0.2273    6.5317 C   0  0
   -7.2101    0.0267    7.9979 C   0  0
   -5.8102   -0.6012    8.1305 C   0  0
   -1.9717   -5.7707   -0.5171 C   0  0
   -1.4560   -6.0718   -1.7870 C   0  0
   -0.1393   -5.6978   -2.1000 C   0  0
    0.6206   -5.0748   -1.2360 N   0  0
   -2.2638   -6.7536   -2.7530 C   0  0
   -2.9046   -7.2945   -3.5194 N   0  0
   -3.2606   -6.1213   -0.1697 N   0  0
   -3.5474   -7.4341    0.2206 C   0  0
   -2.5209   -8.2803    0.6202 C   0  0
   -2.8044   -9.5756    1.0057 C   0  0
   -4.1139  -10.0326    0.9939 C   0  0
   -5.1407   -9.1883    0.5944 C   0  0
   -4.8592   -7.8899    0.2142 C   0  0
   -6.7793   -9.7615    0.5788 Cl  0  0
   -4.3919  -11.3087    1.3734 O   0  0
   -3.2869  -12.1224    1.7720 C   0  0
   -3.7842  -13.4923    2.1551 C   0  0
   -4.1559  -13.7525    3.4609 C   0  0
   -4.6121  -15.0092    3.8124 C   0  0
   -4.6971  -16.0056    2.8579 C   0  0
   -4.3263  -15.7451    1.5519 C   0  0
   -3.8742  -14.4872    1.1996 C   0  0
    4.4792   -1.8359    3.3099 H   0  0
    2.9537   -1.1633    3.9333 H   0  0
    3.5493   -2.7279    4.5379 H   0  0
    2.6355   -2.1542    1.6826 H   0  0
    3.2312   -3.7188    2.2872 H   0  0
    2.0353   -3.8243    0.6007 H   0  0
   -2.5763   -5.0200    1.9913 H   0  0
   -0.5342   -3.7192    4.5676 H   0  0
   -2.2092   -2.9301    6.1728 H   0  0
   -4.9400   -3.0263    4.8158 H   0  0
   -5.3085   -3.1519    7.4190 H   0  0
   -3.8140   -2.2006    7.5917 H   0  0
   -6.6061   -1.4549    5.0394 H   0  0
   -7.1708   -2.3646    6.4784 H   0  0
   -7.4119    0.6427    5.9122 H   0  0
   -8.6855   -0.4902    6.4725 H   0  0
   -7.1652    1.0971    8.1985 H   0  0
   -7.9083   -0.4580    8.6804 H   0  0
   -5.8310   -1.4024    8.8692 H   0  0
   -5.0881    0.1604    8.4250 H   0  0
    0.2559   -5.9303   -3.0778 H   0  0
   -3.9676   -5.4577   -0.1960 H   0  0
   -1.5010   -7.9252    0.6290 H   0  0
   -2.0060  -10.2333    1.3163 H   0  0
   -5.6585   -7.2313   -0.0921 H   0  0
   -2.5828  -12.2097    0.9444 H   0  0
   -2.7883  -11.6647    2.6264 H   0  0
   -4.0894  -12.9741    4.2066 H   0  0
   -4.9017  -15.2127    4.8327 H   0  0
   -5.0529  -16.9876    3.1327 H   0  0
   -4.3924  -16.5236    0.8063 H   0  0
   -3.5880  -14.2827    0.1785 H   0  0
   -4.9204   -0.4700    6.2796 H   0  0
  1  2  1  0
  1 43  1  0
  1 44  1  0
  1 45  1  0
  2  3  1  0
  2 46  1  0
  2 47  1  0
  3  4  1  0
  4  9  4  0
  4  5  4  0
  5  6  4  0
  5 48  1  0
  6 24  4  0
  6  7  4  0
  7  8  4  0
  7 21  4  0
  8  9  4  0
  8 49  1  0
  9 10  1  0
 10 11  1  0
 10 50  1  0
 11 12  2  0
 11 13  1  0
 13 14  2  0
 13 51  1  0
 14 15  1  0
 14 52  1  0
 15 16  1  0
 15 53  1  0
 15 54  1  0
 16 20  1  0
 16 17  1  0
 16 75  1  0
 17 18  1  0
 17 55  1  0
 17 56  1  0
 18 19  1  0
 18 57  1  0
 18 58  1  0
 19 20  1  0
 19 59  1  0
 19 60  1  0
 20 61  1  0
 20 62  1  0
 21 22  4  0
 21 27  1  0
 22 23  4  0
 22 25  1  0
 23 24  4  0
 23 63  1  0
 25 26  3  0
 27 28  1  0
 27 64  1  0
 28 33  4  0
 28 29  4  0
 29 30  4  0
 29 65  1  0
 30 31  4  0
 30 66  1  0
 31 32  4  0
 31 35  1  0
 32 33  4  0
 32 34  1  0
 33 67  1  0
 35 36  1  0
 36 37  1  0
 36 68  1  0
 36 69  1  0
 37 42  4  0
 37 38  4  0
 38 39  4  0
 38 70  1  0
 39 40  4  0
 39 71  1  0
 40 41  4  0
 40 72  1  0
 41 42  4  0
 41 73  1  0
 42 74  1  0
M  END
> <Name>
CHEMBL178312

$$$$
CHEMBL92356
  SciTegic01042610103D

 58 61  0  0  0  0            999 V2000
   -1.4181    0.9741    0.3246 C   0  0
   -1.2065   -0.5411    0.3100 C   0  0
   -0.3500   -0.9268    1.4395 N   0  0  2  0  0  0
    0.9866   -0.3445    1.2612 C   0  0
    1.8736   -0.7304    2.4470 C   0  0
    1.9656   -2.1949    2.5301 N   0  0
    0.6322   -2.7937    2.6837 C   0  0
   -0.2446   -2.3908    1.4961 C   0  0
    2.8562   -2.6052    3.6239 C   0  0
    3.1146   -4.0513    3.5299 C   0  0
    3.3208   -5.2046    3.4550 C   0  0
    3.5722   -6.6114    3.3636 C   0  0
    4.2909   -7.1551    4.1804 O   0  0
    3.0124   -7.3331    2.3725 N   0  0
    3.3356   -8.6858    2.2237 C   0  0
    3.5527   -9.4751    3.3575 C   0  0
    3.8683  -10.7945    3.2425 C   0  0
    3.9788  -11.3769    1.9721 C   0  0
    3.7603  -10.5832    0.8194 C   0  0
    3.4319   -9.2309    0.9596 C   0  0
    3.8786  -11.1999   -0.4502 C   0  0
    4.1880  -12.4888   -0.4942 N   0  0
    4.3834  -13.1907    0.6107 C   0  0
    4.2872  -12.6728    1.8120 N   0  0
    3.6770  -10.4793   -1.6098 N   0  0
    3.6896  -11.1289   -2.8474 C   0  0
    4.1616  -10.4689   -3.9752 C   0  0
    4.1728  -11.1131   -5.1966 C   0  0
    3.7148  -12.4140   -5.2985 C   0  0
    3.2440  -13.0745   -4.1776 C   0  0
    3.2355  -12.4372   -2.9512 C   0  0
    2.6182  -14.8531   -4.3223 Br  0  0
   -0.4545    1.4763    0.2380 H   0  0
   -2.0536    1.2603   -0.5135 H   0  0
   -1.8968    1.2652    1.2596 H   0  0
   -2.1700   -1.0434    0.3966 H   0  0
   -0.7278   -0.8322   -0.6249 H   0  0
    1.4278   -0.7229    0.3392 H   0  0
    0.9055    0.7411    1.2063 H   0  0
    2.8699   -0.3108    2.3076 H   0  0
    1.4399   -0.3404    3.3678 H   0  0
    0.7228   -3.8795    2.7171 H   0  0
    0.1780   -2.4377    3.6084 H   0  0
   -1.2384   -2.8223    1.6152 H   0  0
    0.2029   -2.7588    0.5728 H   0  0
    3.7982   -2.0621    3.5485 H   0  0
    2.3836   -2.3820    4.5804 H   0  0
    2.3853   -6.9143    1.7623 H   0  0
    3.4692   -9.0315    4.3387 H   0  0
    4.0333  -11.3909    4.1277 H   0  0
    3.2591   -8.6184    0.0870 H   0  0
    4.6329  -14.2375    0.5191 H   0  0
    3.5266   -9.5220   -1.5660 H   0  0
    4.5192   -9.4529   -3.8968 H   0  0
    4.5394  -10.6002   -6.0735 H   0  0
    3.7244  -12.9153   -6.2550 H   0  0
    2.8724  -12.9546   -2.0754 H   0  0
   -0.7533   -0.5854    2.2991 H   0  0
  1  2  1  0
  1 33  1  0
  1 34  1  0
  1 35  1  0
  2  3  1  0
  2 36  1  0
  2 37  1  0
  3  8  1  0
  3  4  1  0
  3 58  1  0
  4  5  1  0
  4 38  1  0
  4 39  1  0
  5  6  1  0
  5 40  1  0
  5 41  1  0
  6  7  1  0
  6  9  1  0
  7  8  1  0
  7 42  1  0
  7 43  1  0
  8 44  1  0
  8 45  1  0
  9 10  1  0
  9 46  1  0
  9 47  1  0
 10 11  3  0
 11 12  1  0
 12 13  2  0
 12 14  1  0
 14 15  1  0
 14 48  1  0
 15 20  4  0
 15 16  4  0
 16 17  4  0
 16 49  1  0
 17 18  4  0
 17 50  1  0
 18 24  4  0
 18 19  4  0
 19 20  4  0
 19 21  4  0
 20 51  1  0
 21 22  4  0
 21 25  1  0
 22 23  4  0
 23 24  4  0
 23 52  1  0
 25 26  1  0
 25 53  1  0
 26 31  4  0
 26 27  4  0
 27 28  4  0
 27 54  1  0
 28 29  4  0
 28 55  1  0
 29 30  4  0
 29 56  1  0
 30 31  4  0
 30 32  1  0
 31 57  1  0
M  END
> <Name>
CHEMBL92356

$$$$
CHEMBL360958
  SciTegic01042610103D

 78 82  0  0  0  0            999 V2000
    3.4777   -2.0803    3.6640 C   0  0
    2.7071   -2.8017    2.5565 C   0  0
    1.3942   -3.1222    3.0207 O   0  0
    0.5741   -3.7698    2.1527 C   0  0
    1.0302   -4.0888    0.8946 C   0  0
    0.1880   -4.7577   -0.0066 C   0  0
   -1.1269   -5.0964    0.3953 C   0  0
   -1.5738   -4.7634    1.6820 C   0  0
   -0.7275   -4.1115    2.5509 C   0  0
   -1.1700   -3.7832    3.8377 N   0  0
   -2.4793   -3.5561    4.0627 C   0  0
   -3.2894   -3.7365    3.1735 O   0  0
   -2.9285   -3.0902    5.3833 C   0  0
   -4.2207   -2.8661    5.6053 C   0  0
   -4.6810   -2.3887    6.9585 C   0  0
   -5.4527   -1.1483    6.8037 N   0  0
   -4.5766   -0.0901    6.2867 C   0  0
   -5.3933    1.1815    6.0469 C   0  0
   -6.0200    1.6358    7.3683 C   0  0
   -6.8723    0.4971    7.9358 C   0  0
   -6.0009   -0.7492    8.1055 C   0  0
   -1.9717   -5.7707   -0.5171 C   0  0
   -1.4560   -6.0718   -1.7870 C   0  0
   -0.1393   -5.6978   -2.1000 C   0  0
    0.6206   -5.0748   -1.2360 N   0  0
   -2.2638   -6.7536   -2.7530 C   0  0
   -2.9046   -7.2945   -3.5194 N   0  0
   -3.2606   -6.1213   -0.1697 N   0  0
   -3.5474   -7.4341    0.2206 C   0  0
   -2.5209   -8.2803    0.6202 C   0  0
   -2.8044   -9.5756    1.0057 C   0  0
   -4.1139  -10.0326    0.9939 C   0  0
   -5.1407   -9.1883    0.5944 C   0  0
   -4.8592   -7.8899    0.2142 C   0  0
   -6.7793   -9.7615    0.5788 Cl  0  0
   -4.3919  -11.3087    1.3734 O   0  0
   -3.2869  -12.1224    1.7720 C   0  0
   -3.7842  -13.4923    2.1551 C   0  0
   -4.1559  -13.7525    3.4609 C   0  0
   -4.6121  -15.0092    3.8124 C   0  0
   -4.6971  -16.0056    2.8579 C   0  0
   -4.3263  -15.7451    1.5519 C   0  0
   -3.8742  -14.4872    1.1996 C   0  0
    4.4792   -1.8359    3.3099 H   0  0
    2.9537   -1.1633    3.9333 H   0  0
    3.5493   -2.7279    4.5379 H   0  0
    2.6355   -2.1542    1.6826 H   0  0
    3.2312   -3.7188    2.2872 H   0  0
    2.0353   -3.8243    0.6007 H   0  0
   -2.5763   -5.0200    1.9913 H   0  0
   -0.5342   -3.7192    4.5676 H   0  0
   -2.2092   -2.9301    6.1728 H   0  0
   -4.9400   -3.0263    4.8158 H   0  0
   -5.3085   -3.1519    7.4190 H   0  0
   -3.8140   -2.2006    7.5917 H   0  0
   -3.7891    0.1156    7.0117 H   0  0
   -4.1289   -0.4162    5.3479 H   0  0
   -4.7407    1.9665    5.6647 H   0  0
   -6.1810    0.9770    5.3218 H   0  0
   -5.2319    1.8895    8.0773 H   0  0
   -6.6485    2.5089    7.1925 H   0  0
   -7.2770    0.7929    8.9037 H   0  0
   -7.6907    0.2784    7.2499 H   0  0
   -6.6046   -1.5618    8.5096 H   0  0
   -5.1830   -0.5294    8.7918 H   0  0
    0.2559   -5.9303   -3.0778 H   0  0
   -3.9676   -5.4577   -0.1960 H   0  0
   -1.5010   -7.9252    0.6290 H   0  0
   -2.0060  -10.2333    1.3163 H   0  0
   -5.6585   -7.2313   -0.0921 H   0  0
   -2.5828  -12.2097    0.9444 H   0  0
   -2.7883  -11.6647    2.6264 H   0  0
   -4.0894  -12.9741    4.2066 H   0  0
   -4.9017  -15.2127    4.8327 H   0  0
   -5.0529  -16.9876    3.1327 H   0  0
   -4.3924  -16.5236    0.8063 H   0  0
   -3.5880  -14.2827    0.1785 H   0  0
   -6.2093   -1.3029    6.1544 H   0  0
  1  2  1  0
  1 44  1  0
  1 45  1  0
  1 46  1  0
  2  3  1  0
  2 47  1  0
  2 48  1  0
  3  4  1  0
  4  9  4  0
  4  5  4  0
  5  6  4  0
  5 49  1  0
  6 25  4  0
  6  7  4  0
  7  8  4  0
  7 22  4  0
  8  9  4  0
  8 50  1  0
  9 10  1  0
 10 11  1  0
 10 51  1  0
 11 12  2  0
 11 13  1  0
 13 14  2  0
 13 52  1  0
 14 15  1  0
 14 53  1  0
 15 16  1  0
 15 54  1  0
 15 55  1  0
 16 21  1  0
 16 17  1  0
 16 78  1  0
 17 18  1  0
 17 56  1  0
 17 57  1  0
 18 19  1  0
 18 58  1  0
 18 59  1  0
 19 20  1  0
 19 60  1  0
 19 61  1  0
 20 21  1  0
 20 62  1  0
 20 63  1  0
 21 64  1  0
 21 65  1  0
 22 23  4  0
 22 28  1  0
 23 24  4  0
 23 26  1  0
 24 25  4  0
 24 66  1  0
 26 27  3  0
 28 29  1  0
 28 67  1  0
 29 34  4  0
 29 30  4  0
 30 31  4  0
 30 68  1  0
 31 32  4  0
 31 69  1  0
 32 33  4  0
 32 36  1  0
 33 34  4  0
 33 35  1  0
 34 70  1  0
 36 37  1  0
 37 38  1  0
 37 71  1  0
 37 72  1  0
 38 43  4  0
 38 39  4  0
 39 40  4  0
 39 73  1  0
 40 41  4  0
 40 74  1  0
 41 42  4  0
 41 75  1  0
 42 43  4  0
 42 76  1  0
 43 77  1  0
M  END
> <Name>
CHEMBL360958

$$$$
CHEMBL256297
  SciTegic01042610103D

 45 47  0  0  0  0            999 V2000
    0.6015    1.4832   -0.1719 C   0  0
    0.7153    0.0592   -0.1343 O   0  0
    0.6201   -0.5599   -1.4043 N   0  0
    0.7079   -1.8485   -1.5049 C   0  0
    0.6090   -2.4919   -2.8248 C   0  0
    0.3127   -1.7410   -3.9776 C   0  0
    0.2339   -2.3677   -5.1481 N   0  0
    0.4281   -3.6682   -5.2375 C   0  0
    0.7077   -4.4126   -4.1871 N   0  0
    0.8135   -3.8760   -2.9742 C   0  0
    1.1131   -4.6652   -1.8793 N   0  0
    1.4220   -6.0192   -2.0559 C   0  0
    2.0828   -6.4371   -3.2038 C   0  0
    2.3878   -7.7727   -3.3776 C   0  0
    2.0345   -8.6974   -2.4062 C   0  0
    1.3740   -8.2813   -1.2585 C   0  0
    1.0729   -6.9442   -1.0810 C   0  0
    0.9316   -9.4395   -0.0433 Cl  0  0
    2.3349  -10.0127   -2.5785 O   0  0
    3.0150  -10.3704   -3.7833 C   0  0
    3.2617  -11.8570   -3.7985 C   0  0
    4.4256  -12.3699   -3.2561 C   0  0
    4.6533  -13.7332   -3.2693 C   0  0
    3.7177  -14.5853   -3.8252 C   0  0
    2.5521  -14.0729   -4.3686 C   0  0
    2.3223  -12.7074   -4.3493 C   0  0
    1.6371  -14.9048   -4.9127 F   0  0
    0.1069   -0.3771   -3.8948 N   0  0
    1.3984    1.8951   -0.7911 H   0  0
   -0.3653    1.7594   -0.5927 H   0  0
    0.6847    1.8811    0.8394 H   0  0
    0.8538   -2.4506   -0.6202 H   0  0
    0.3551   -4.1404   -6.2061 H   0  0
    1.1094   -4.2808   -0.9887 H   0  0
    2.3579   -5.7175   -3.9607 H   0  0
    2.9014   -8.0974   -4.2705 H   0  0
    0.5630   -6.6194   -0.1860 H   0  0
    2.4024  -10.0950   -4.6418 H   0  0
    3.9678   -9.8434   -3.8329 H   0  0
    5.1575  -11.7048   -2.8221 H   0  0
    5.5627  -14.1327   -2.8453 H   0  0
    3.8962  -15.6504   -3.8361 H   0  0
    1.4113  -12.3069   -4.7689 H   0  0
    0.2570    0.0860   -3.0558 H   0  0
   -0.1877    0.1172   -4.6757 H   0  0
  1  2  1  0
  1 29  1  0
  1 30  1  0
  1 31  1  0
  2  3  1  0
  3  4  2  0
  4  5  1  0
  4 32  1  0
  5 10  4  0
  5  6  4  0
  6  7  4  0
  6 28  1  0
  7  8  4  0
  8  9  4  0
  8 33  1  0
  9 10  4  0
 10 11  1  0
 11 12  1  0
 11 34  1  0
 12 17  4  0
 12 13  4  0
 13 14  4  0
 13 35  1  0
 14 15  4  0
 14 36  1  0
 15 16  4  0
 15 19  1  0
 16 17  4  0
 16 18  1  0
 17 37  1  0
 19 20  1  0
 20 21  1  0
 20 38  1  0
 20 39  1  0
 21 26  4  0
 21 22  4  0
 22 23  4  0
 22 40  1  0
 23 24  4  0
 23 41  1  0
 24 25  4  0
 24 42  1  0
 25 26  4  0
 25 27  1  0
 26 43  1  0
 28 44  1  0
 28 45  1  0
M  END
> <Name>
CHEMBL256297

$$$$
CHEMBL368702
  SciTegic01042610103D

 72 76  0  0  0  0            999 V2000
   -4.8739   -2.1797    1.1390 C   0  0
   -3.5184   -2.8777    1.0111 C   0  0
   -3.2593   -3.1667   -0.3642 O   0  0
   -2.0878   -3.7905   -0.6532 C   0  0
   -1.2211   -4.1164    0.3643 C   0  0
   -0.0094   -4.7608    0.0722 C   0  0
    0.3049   -5.0678   -1.2739 C   0  0
   -0.5912   -4.7281   -2.2975 C   0  0
   -1.7768   -4.1008   -1.9861 C   0  0
   -2.6753   -3.7660   -3.0060 N   0  0
   -2.2193   -3.5069   -4.2476 C   0  0
   -1.0416   -3.6638   -4.5080 O   0  0
   -3.1458   -3.0345   -5.2874 C   0  0
   -2.6958   -2.7788   -6.5128 C   0  0
   -3.6452   -2.2947   -7.5783 C   0  0
   -3.1448   -1.0348   -8.1442 N   0  0
   -2.1935   -1.2276   -9.2546 C   0  0
   -2.8406   -0.0189   -9.9453 C   0  0
   -4.0685   -0.4208   -9.1163 C   0  0
    1.5278   -5.7175   -1.5627 C   0  0
    2.3746   -6.0270   -0.4874 C   0  0
    1.9819   -5.6850    0.8167 C   0  0
    0.8441   -5.0844    1.0552 N   0  0
    3.6255   -6.6849   -0.7174 C   0  0
    4.6179   -7.2069   -0.8999 N   0  0
    1.8765   -6.0368   -2.8593 N   0  0
    1.7023   -7.3434   -3.3291 C   0  0
    0.8564   -8.2165   -2.6569 C   0  0
    0.6844   -9.5056   -3.1211 C   0  0
    1.3561   -9.9295   -4.2580 C   0  0
    2.2021   -9.0584   -4.9305 C   0  0
    2.3704   -7.7661   -4.4707 C   0  0
    3.0433   -9.5902   -6.3529 Cl  0  0
    1.1863  -11.1996   -4.7140 O   0  0
    0.3015  -12.0421   -3.9728 C   0  0
    0.2396  -13.4005   -4.6224 C   0  0
   -0.7015  -13.6558   -5.6022 C   0  0
   -0.7583  -14.9019   -6.1980 C   0  0
    0.1263  -15.8925   -5.8144 C   0  0
    1.0680  -15.6368   -4.8352 C   0  0
    1.1276  -14.3895   -4.2424 C   0  0
   -4.8595   -1.2508    0.5689 H   0  0
   -5.6564   -2.8319    0.7511 H   0  0
   -5.0715   -1.9593    2.1880 H   0  0
   -2.7359   -2.2255    1.3989 H   0  0
   -3.5328   -3.8066    1.5811 H   0  0
   -1.4730   -3.8762    1.3867 H   0  0
   -0.3541   -4.9606   -3.3252 H   0  0
   -3.6260   -3.7205   -2.8192 H   0  0
   -4.1915   -2.8952   -5.0562 H   0  0
   -1.6501   -2.9181   -6.7440 H   0  0
   -3.7185   -3.0435   -8.3670 H   0  0
   -4.6298   -2.1306   -7.1404 H   0  0
   -1.1546   -1.0603   -8.9702 H   0  0
   -2.3383   -2.1643   -9.7928 H   0  0
   -2.4069    0.9408   -9.6642 H   0  0
   -2.9705   -0.1365  -11.0211 H   0  0
   -4.7137   -1.1422   -9.6176 H   0  0
   -4.6187    0.4301   -8.7147 H   0  0
    2.6348   -5.9240    1.6431 H   0  0
    2.2423   -5.3556   -3.4450 H   0  0
    0.3336   -7.8872   -1.7711 H   0  0
    0.0266  -10.1842   -2.5982 H   0  0
    3.0249   -7.0865   -4.9964 H   0  0
    0.6678  -12.1442   -2.9512 H   0  0
   -0.6947  -11.6001   -3.9591 H   0  0
   -1.3926  -12.8819   -5.9019 H   0  0
   -1.4941  -15.1016   -6.9630 H   0  0
    0.0814  -16.8662   -6.2794 H   0  0
    1.7589  -16.4108   -4.5352 H   0  0
    1.8657  -14.1886   -3.4800 H   0  0
   -2.8164   -0.3905   -7.4406 H   0  0
  1  2  1  0
  1 42  1  0
  1 43  1  0
  1 44  1  0
  2  3  1  0
  2 45  1  0
  2 46  1  0
  3  4  1  0
  4  9  4  0
  4  5  4  0
  5  6  4  0
  5 47  1  0
  6 23  4  0
  6  7  4  0
  7  8  4  0
  7 20  4  0
  8  9  4  0
  8 48  1  0
  9 10  1  0
 10 11  1  0
 10 49  1  0
 11 12  2  0
 11 13  1  0
 13 14  2  0
 13 50  1  0
 14 15  1  0
 14 51  1  0
 15 16  1  0
 15 52  1  0
 15 53  1  0
 16 19  1  0
 16 17  1  0
 16 72  1  0
 17 18  1  0
 17 54  1  0
 17 55  1  0
 18 19  1  0
 18 56  1  0
 18 57  1  0
 19 58  1  0
 19 59  1  0
 20 21  4  0
 20 26  1  0
 21 22  4  0
 21 24  1  0
 22 23  4  0
 22 60  1  0
 24 25  3  0
 26 27  1  0
 26 61  1  0
 27 32  4  0
 27 28  4  0
 28 29  4  0
 28 62  1  0
 29 30  4  0
 29 63  1  0
 30 31  4  0
 30 34  1  0
 31 32  4  0
 31 33  1  0
 32 64  1  0
 34 35  1  0
 35 36  1  0
 35 65  1  0
 35 66  1  0
 36 41  4  0
 36 37  4  0
 37 38  4  0
 37 67  1  0
 38 39  4  0
 38 68  1  0
 39 40  4  0
 39 69  1  0
 40 41  4  0
 40 70  1  0
 41 71  1  0
M  END
> <Name>
CHEMBL368702

$$$$
CHEMBL94068
  SciTegic01042610103D

 55 58  0  0  0  0            999 V2000
    2.8968   -0.5699    4.3777 C   0  0
    3.8145    0.1510    3.6388 C   0  0
    3.4330    1.3382    3.0271 C   0  0
    2.1286    1.7970    3.1606 C   0  0
    1.2153    1.0714    3.9011 C   0  0
    1.5992   -0.1112    4.5092 C   0  0
   -0.5607    1.6944    4.0839 Br  0  0
    4.3597    2.0700    2.2791 N   0  0
    5.3498    1.4150    1.5754 C   0  0
    6.3700    2.1387    0.9101 C   0  0
    6.4241    3.5360    0.9336 C   0  0
    7.4431    4.1847    0.2664 C   0  0
    8.4149    3.4576   -0.4282 C   0  0
    8.3795    2.0969   -0.4634 C   0  0
    7.3574    1.4084    0.2048 C   0  0
    7.2842    0.0685    0.1973 N   0  0
    6.3163   -0.5487    0.8315 C   0  0
    5.3752    0.0909    1.5080 N   0  0
    7.5042    5.5820    0.2846 N   0  0
    8.6997    6.2043    0.2858 C   0  0
    9.7243    5.5531    0.3603 O   0  0
    8.7655    7.6708    0.1969 C   0  0
    9.9454    8.2850    0.1981 C   0  0
   10.0127    9.7877    0.1070 C   0  0
   10.7901   10.3124    1.2377 N   0  0
   10.0842   10.0222    2.4914 C   0  0
   10.9280   10.4946    3.6774 C   0  0
   11.1642   12.0031    3.5601 C   0  0
   11.8339   12.3020    2.2157 C   0  0
   10.9565   11.7626    1.0839 C   0  0
    3.1920   -1.4953    4.8497 H   0  0
    4.8280   -0.2080    3.5371 H   0  0
    1.8289    2.7200    2.6865 H   0  0
    0.8836   -0.6770    5.0872 H   0  0
    4.3069    3.0383    2.2547 H   0  0
    5.6756    4.1018    1.4684 H   0  0
    9.2048    3.9829   -0.9445 H   0  0
    9.1369    1.5495   -1.0048 H   0  0
    6.2884   -1.6280    0.8044 H   0  0
    6.6862    6.1032    0.2963 H   0  0
    7.8558    8.2491    0.1307 H   0  0
   10.8551    7.7067    0.2643 H   0  0
   10.4935   10.0738   -0.8284 H   0  0
    9.0038   10.1991    0.1377 H   0  0
    9.1264   10.5425    2.4974 H   0  0
    9.9140    8.9486    2.5719 H   0  0
   10.4013   10.2798    4.6072 H   0  0
   11.8860    9.9747    3.6725 H   0  0
   10.2099   12.5269    3.6164 H   0  0
   11.8118   12.3348    4.3717 H   0  0
   11.9548   13.3791    2.1008 H   0  0
   12.8107   11.8196    2.1805 H   0  0
   11.4304   11.9739    0.1253 H   0  0
    9.9802   12.2458    1.1199 H   0  0
   11.6971    9.8707    1.2547 H   0  0
  1  6  4  0
  1  2  4  0
  1 31  1  0
  2  3  4  0
  2 32  1  0
  3  4  4  0
  3  8  1  0
  4  5  4  0
  4 33  1  0
  5  6  4  0
  5  7  1  0
  6 34  1  0
  8  9  1  0
  8 35  1  0
  9 18  4  0
  9 10  4  0
 10 15  4  0
 10 11  4  0
 11 12  4  0
 11 36  1  0
 12 13  4  0
 12 19  1  0
 13 14  4  0
 13 37  1  0
 14 15  4  0
 14 38  1  0
 15 16  4  0
 16 17  4  0
 17 18  4  0
 17 39  1  0
 19 20  1  0
 19 40  1  0
 20 21  2  0
 20 22  1  0
 22 23  2  0
 22 41  1  0
 23 24  1  0
 23 42  1  0
 24 25  1  0
 24 43  1  0
 24 44  1  0
 25 30  1  0
 25 26  1  0
 25 55  1  0
 26 27  1  0
 26 45  1  0
 26 46  1  0
 27 28  1  0
 27 47  1  0
 27 48  1  0
 28 29  1  0
 28 49  1  0
 28 50  1  0
 29 30  1  0
 29 51  1  0
 29 52  1  0
 30 53  1  0
 30 54  1  0
M  END
> <Name>
CHEMBL94068

$$$$
CHEMBL304971
  SciTegic01042610103D

 58 62  0  0  0  0            999 V2000
    2.4213    0.2984    0.0292 C   0  0
    1.9702   -1.0690    0.4739 C   0  0
    2.0945   -2.2734   -0.2518 C   0  0
    1.5517   -3.2787    0.5275 C   0  0
    1.1104   -2.7419    1.6777 N   0  0
    0.6867   -3.2317    2.3998 H   0  0
    1.3613   -1.3855    1.6721 C   0  0
    1.0472   -0.4790    2.7084 C   0  0
   -0.0904   -0.6661    3.4679 C   0  0
   -0.4424   -0.0044    4.7398 C   0  0
   -1.6892   -0.5194    5.1239 C   0  0
   -2.2321   -0.0745    6.2565 N   0  0
   -1.6147    0.8243    6.9951 C   0  0
   -0.4428    1.3320    6.6674 N   0  0
    0.1785    0.9483    5.5530 C   0  0
    1.4101    1.4805    5.2084 N   0  0
    1.9543    2.5279    5.9593 C   0  0
    1.7903    2.5533    7.3384 C   0  0
    2.3281    3.5880    8.0783 C   0  0
    3.0307    4.6002    7.4467 C   0  0
    3.1959    4.5775    6.0711 C   0  0
    2.6640    3.5406    5.3277 C   0  0
    4.0767    5.8483    5.2819 Cl  0  0
    3.5555    5.6117    8.1726 F   0  0
   -2.1110   -1.4361    4.1834 N   0  0
   -1.2204   -1.5635    3.1842 C   0  0
   -1.3289   -2.2951    2.2165 O   0  0
    2.6910   -2.4302   -1.5906 C   0  0
    3.6708   -1.7796   -1.8997 O   0  0
    2.1505   -3.2946   -2.4722 N   0  0
    0.8794   -3.9746   -2.1802 C   0  0
   -0.0630   -3.7778   -3.3724 C   0  0
    0.6093   -4.2188   -4.6019 N   0  0
    1.7975   -3.4016   -4.8820 C   0  0
    2.8130   -3.5784   -3.7543 C   0  0
   -0.3176   -4.2081   -5.7415 C   0  0
    3.4511    0.4623    0.3466 H   0  0
    2.3609    0.3654   -1.0571 H   0  0
    1.7782    1.0564    0.4763 H   0  0
    1.4920   -4.3224    0.2564 H   0  0
    1.6969    0.3606    2.9068 H   0  0
   -2.0877    1.1594    7.9063 H   0  0
    1.8952    1.1270    4.4464 H   0  0
    1.2421    1.7643    7.8318 H   0  0
    2.2002    3.6078    9.1505 H   0  0
    2.7965    3.5204    4.2560 H   0  0
   -2.9471   -1.9252    4.2348 H   0  0
    1.0600   -5.0387   -2.0280 H   0  0
    0.4314   -3.5445   -1.2845 H   0  0
   -0.9680   -4.3663   -3.2217 H   0  0
   -0.3245   -2.7233   -3.4591 H   0  0
    2.2416   -3.7172   -5.8260 H   0  0
    1.5100   -2.3523   -4.9477 H   0  0
    3.6427   -2.8864   -3.8987 H   0  0
    3.1830   -4.6036   -3.7563 H   0  0
   -0.6954   -3.1970   -5.8932 H   0  0
    0.2058   -4.5388   -6.6387 H   0  0
   -1.1509   -4.8807   -5.5384 H   0  0
  1  2  1  0
  1 37  1  0
  1 38  1  0
  1 39  1  0
  2  7  2  0
  2  3  1  0
  3  4  2  0
  3 28  1  0
  4  5  1  0
  4 40  1  0
  5  6  1  0
  5  7  1  0
  7  8  1  0
  8  9  2  0
  8 41  1  0
  9 26  1  0
  9 10  1  0
 10 15  4  0
 10 11  4  0
 11 12  4  0
 11 25  1  0
 12 13  4  0
 13 14  4  0
 13 42  1  0
 14 15  4  0
 15 16  1  0
 16 17  1  0
 16 43  1  0
 17 22  4  0
 17 18  4  0
 18 19  4  0
 18 44  1  0
 19 20  4  0
 19 45  1  0
 20 21  4  0
 20 24  1  0
 21 22  4  0
 21 23  1  0
 22 46  1  0
 25 26  1  0
 25 47  1  0
 26 27  2  0
 28 29  2  0
 28 30  1  0
 30 35  1  0
 30 31  1  0
 31 32  1  0
 31 48  1  0
 31 49  1  0
 32 33  1  0
 32 50  1  0
 32 51  1  0
 33 34  1  0
 33 36  1  0
 34 35  1  0
 34 52  1  0
 34 53  1  0
 35 54  1  0
 35 55  1  0
 36 56  1  0
 36 57  1  0
 36 58  1  0
M  END
> <Name>
CHEMBL304971

$$$$
CHEMBL125086
  SciTegic01042610103D

 49 52  0  0  0  0            999 V2000
    1.0044    1.4242    0.6324 C   0  0
    0.7863   -0.0823    0.4789 C   0  0
    1.4468   -0.5414   -0.7022 O   0  0
    1.3510   -1.8675   -0.9873 C   0  0
    0.6401   -2.6872   -0.1573 C   0  0
    0.5408   -4.0526   -0.4498 C   0  0
    1.1767   -4.5762   -1.6028 C   0  0
    1.9001   -3.7178   -2.4396 C   0  0
    1.9780   -2.3773   -2.1327 C   0  0
    2.6743   -1.5411   -2.9460 O   0  0
    3.2906   -2.1206   -4.0977 C   0  0
    4.0234   -1.0328   -4.8856 C   0  0
    1.0655   -5.8888   -1.8606 N   0  0
    0.3805   -6.6683   -1.0582 C   0  0
   -0.2297   -6.2242    0.0291 N   0  0
   -0.1835   -4.9447    0.3763 C   0  0
   -0.8244   -4.4954    1.5136 N   0  0
   -1.4324   -5.4084    2.3802 C   0  0
   -2.6147   -5.0698    3.0290 C   0  0
   -3.2196   -5.9690    3.8866 C   0  0
   -2.6546   -7.2093    4.1045 C   0  0
   -1.4680   -7.5592    3.4576 C   0  0
   -0.8598   -6.6536    2.5882 C   0  0
   -0.8603   -8.8863    3.6899 C   0  0
   -1.3544   -9.8590    4.5011 C   0  0
   -0.4617  -10.9466    4.4210 C   0  0
    0.5226  -10.5876    3.5739 C   0  0
    0.2759   -9.3443    3.1302 O   0  0
    2.0718    1.6309    0.7094 H   0  0
    0.5961    1.9408   -0.2363 H   0  0
    0.5005    1.7744    1.5333 H   0  0
    1.1945   -0.5989    1.3476 H   0  0
   -0.2812   -0.2889    0.4018 H   0  0
    0.1573   -2.2838    0.7206 H   0  0
    2.3902   -4.1033   -3.3214 H   0  0
    4.0027   -2.8837   -3.7835 H   0  0
    2.5267   -2.5743   -4.7291 H   0  0
    4.7873   -0.5790   -4.2542 H   0  0
    4.4936   -1.4748   -5.7641 H   0  0
    3.3114   -0.2697   -5.1998 H   0  0
    0.3110   -7.7196   -1.2956 H   0  0
   -0.8528   -3.5462    1.7113 H   0  0
   -3.0615   -4.1008    2.8624 H   0  0
   -4.1375   -5.7001    4.3883 H   0  0
   -3.1303   -7.9090    4.7758 H   0  0
    0.0563   -6.9201    2.0820 H   0  0
   -2.2564   -9.8079    5.0928 H   0  0
   -0.5499  -11.8893    4.9405 H   0  0
    1.3677  -11.1996    3.2951 H   0  0
  1  2  1  0
  1 29  1  0
  1 30  1  0
  1 31  1  0
  2  3  1  0
  2 32  1  0
  2 33  1  0
  3  4  1  0
  4  9  4  0
  4  5  4  0
  5  6  4  0
  5 34  1  0
  6 16  4  0
  6  7  4  0
  7  8  4  0
  7 13  4  0
  8  9  4  0
  8 35  1  0
  9 10  1  0
 10 11  1  0
 11 12  1  0
 11 36  1  0
 11 37  1  0
 12 38  1  0
 12 39  1  0
 12 40  1  0
 13 14  4  0
 14 15  4  0
 14 41  1  0
 15 16  4  0
 16 17  1  0
 17 18  1  0
 17 42  1  0
 18 23  4  0
 18 19  4  0
 19 20  4  0
 19 43  1  0
 20 21  4  0
 20 44  1  0
 21 22  4  0
 21 45  1  0
 22 23  4  0
 22 24  1  0
 23 46  1  0
 24 28  1  0
 24 25  2  0
 25 26  1  0
 25 47  1  0
 26 27  2  0
 26 48  1  0
 27 28  1  0
 27 49  1  0
M  END
> <Name>
CHEMBL125086

$$$$
CHEMBL138125
  SciTegic01042610103D

 45 48  0  0  0  0            999 V2000
   -0.2945   -3.2944    1.9322 C   0  0
   -1.5008   -2.6304    1.7681 C   0  0
   -1.5392   -1.4847    0.9965 C   0  0
   -0.4467   -1.0227    0.4199 N   0  0
    0.7170   -1.6279    0.5540 C   0  0
    0.8325   -2.7785    1.3112 C   0  0
    1.9353   -1.0587   -0.1264 C   0  0
    1.9960   -1.5458   -1.5067 N   0  0
    2.9138   -2.3022   -1.8575 N   0  0
    3.7977   -2.8209   -0.9023 N   0  0
    4.8969   -3.5839   -1.3083 C   0  0
    5.1113   -3.8205   -2.6699 C   0  0
    6.1733   -4.5598   -3.0937 C   0  0
    7.0692   -5.0942   -2.1571 C   0  0
    6.8583   -4.8580   -0.7764 C   0  0
    5.7639   -4.0920   -0.3621 C   0  0
    7.7806   -5.4106    0.1457 C   0  0
    8.7942   -6.1206   -0.3313 N   0  0
    8.9507   -6.3149   -1.6310 C   0  0
    8.1288   -5.8278   -2.5299 N   0  0
    7.6289   -5.2150    1.5034 N   0  0
    8.6124   -5.6656    2.3885 C   0  0
    8.2562   -6.1194    3.6525 C   0  0
    9.2299   -6.5644    4.5247 C   0  0
   10.5587   -6.5589    4.1417 C   0  0
   10.9173   -6.1073    2.8841 C   0  0
    9.9469   -5.6660    2.0043 C   0  0
   12.7358   -6.1012    2.3655 Br  0  0
   -0.2336   -4.1896    2.5332 H   0  0
   -2.3989   -3.0041    2.2371 H   0  0
   -2.4748   -0.9617    0.8637 H   0  0
    1.7885   -3.2695    1.4176 H   0  0
    1.8757    0.0297   -0.1274 H   0  0
    2.8309   -1.3730    0.4095 H   0  0
    3.6472   -2.6508    0.0408 H   0  0
    4.4243   -3.4112   -3.3958 H   0  0
    6.3249   -4.7343   -4.1487 H   0  0
    5.5968   -3.9029    0.6880 H   0  0
    9.7933   -6.9010   -1.9668 H   0  0
    6.8398   -4.7649    1.8434 H   0  0
    7.2188   -6.1238    3.9527 H   0  0
    8.9533   -6.9168    5.5074 H   0  0
   11.3181   -6.9075    4.8259 H   0  0
   10.2265   -5.3180    1.0209 H   0  0
    1.3182   -1.2765   -2.1463 H   0  0
  1  6  4  0
  1  2  4  0
  1 29  1  0
  2  3  4  0
  2 30  1  0
  3  4  4  0
  3 31  1  0
  4  5  4  0
  5  6  4  0
  5  7  1  0
  6 32  1  0
  7  8  1  0
  7 33  1  0
  7 34  1  0
  8  9  2  0
  8 45  1  0
  9 10  1  0
 10 11  1  0
 10 35  1  0
 11 16  4  0
 11 12  4  0
 12 13  4  0
 12 36  1  0
 13 14  4  0
 13 37  1  0
 14 20  4  0
 14 15  4  0
 15 16  4  0
 15 17  4  0
 16 38  1  0
 17 18  4  0
 17 21  1  0
 18 19  4  0
 19 20  4  0
 19 39  1  0
 21 22  1  0
 21 40  1  0
 22 27  4  0
 22 23  4  0
 23 24  4  0
 23 41  1  0
 24 25  4  0
 24 42  1  0
 25 26  4  0
 25 43  1  0
 26 27  4  0
 26 28  1  0
 27 44  1  0
M  END
> <Name>
CHEMBL138125

$$$$
CHEMBL257861
  SciTegic01042610103D

 46 49  0  0  0  0            999 V2000
    0.0046    1.3805    0.0220 C   0  0
    1.2038    2.0563   -0.1454 C   0  0
    2.3653    1.3310   -0.3309 C   0  0
    2.3414    0.0125   -0.3500 N   0  0
    1.2199   -0.6631   -0.1941 C   0  0
    0.0191   -0.0055   -0.0035 C   0  0
    1.2474   -2.1695   -0.2246 C   0  0
   -0.0761   -2.6740   -0.0356 O   0  0
   -0.2277   -4.0257   -0.0366 C   0  0
    0.8764   -4.8468   -0.2102 C   0  0
    0.7235   -6.2194   -0.2114 C   0  0
   -0.5361   -6.7780   -0.0383 C   0  0
   -1.6415   -5.9560    0.1360 C   0  0
   -1.4865   -4.5827    0.1418 C   0  0
   -2.8669   -3.5542    0.3662 Cl  0  0
   -0.6914   -8.1694   -0.0399 N   0  0
    0.3141   -8.9774    0.4553 C   0  0
    0.2283  -10.3769    0.3567 C   0  0
    1.2816  -11.1537    0.8783 C   0  0
    0.9551  -12.4572    0.6582 N   0  0
    1.4956  -13.2216    0.9123 H   0  0
   -0.2823  -12.5214    0.0086 N   0  0
   -0.7460  -11.3156   -0.1883 C   0  0
   -1.9214  -10.9948   -0.7902 O   0  0
   -2.7296  -12.0782   -1.2540 C   0  0
   -4.0027  -11.5255   -1.8980 C   0  0
   -3.6598  -10.7814   -3.0688 O   0  0
    2.3159  -10.5307    1.4432 N   0  0
    2.3523   -9.2182    1.5123 C   0  0
    1.3898   -8.4506    1.0323 N   0  0
   -0.9182    1.9210    0.1732 H   0  0
    1.2297    3.1359   -0.1315 H   0  0
    3.3033    1.8498   -0.4620 H   0  0
   -0.8962   -0.5644    0.1239 H   0  0
    1.6306   -2.5065   -1.1878 H   0  0
    1.8937   -2.5373    0.5723 H   0  0
    1.8561   -4.4127   -0.3449 H   0  0
    1.5836   -6.8583   -0.3474 H   0  0
   -2.6214   -6.3896    0.2703 H   0  0
   -1.5049   -8.5663   -0.3887 H   0  0
   -2.1724  -12.6581   -1.9898 H   0  0
   -2.9963  -12.7185   -0.4132 H   0  0
   -4.6594  -12.3513   -2.1717 H   0  0
   -4.5144  -10.8736   -1.1901 H   0  0
   -4.4200  -10.4008   -3.5295 H   0  0
    3.2061   -8.7478    1.9774 H   0  0
  1  6  4  0
  1  2  4  0
  1 31  1  0
  2  3  4  0
  2 32  1  0
  3  4  4  0
  3 33  1  0
  4  5  4  0
  5  6  4  0
  5  7  1  0
  6 34  1  0
  7  8  1  0
  7 35  1  0
  7 36  1  0
  8  9  1  0
  9 14  4  0
  9 10  4  0
 10 11  4  0
 10 37  1  0
 11 12  4  0
 11 38  1  0
 12 13  4  0
 12 16  1  0
 13 14  4  0
 13 39  1  0
 14 15  1  0
 16 17  1  0
 16 40  1  0
 17 30  4  0
 17 18  4  0
 18 23  1  0
 18 19  4  0
 19 20  1  0
 19 28  4  0
 20 21  1  0
 20 22  1  0
 22 23  2  0
 23 24  1  0
 24 25  1  0
 25 26  1  0
 25 41  1  0
 25 42  1  0
 26 27  1  0
 26 43  1  0
 26 44  1  0
 27 45  1  0
 28 29  4  0
 29 30  4  0
 29 46  1  0
M  END
> <Name>
CHEMBL257861

$$$$
CHEMBL257859
  SciTegic01042610103D

 61 65  0  0  0  0            999 V2000
    0.6476    1.3110   -0.1748 C   0  0
   -0.1428    2.2004    0.5372 C   0  0
   -1.1796    1.7113    1.3088 C   0  0
   -1.4202    0.4161    1.3726 N   0  0
   -0.6895   -0.4583    0.7093 C   0  0
    0.3640   -0.0429   -0.0833 C   0  0
   -1.0063   -1.9277    0.8169 C   0  0
   -0.0866   -2.6732    0.0166 O   0  0
   -0.2352   -4.0250    0.0025 C   0  0
   -1.2491   -4.6186    0.7396 C   0  0
   -1.4008   -5.9912    0.7260 C   0  0
   -0.5382   -6.7778   -0.0263 C   0  0
    0.4766   -6.1836   -0.7646 C   0  0
    0.6243   -4.8096   -0.7540 C   0  0
    1.8887   -4.0652   -1.6820 Cl  0  0
   -0.6914   -8.1694   -0.0399 N   0  0
   -1.9512   -8.7268    0.0682 C   0  0
   -2.1166  -10.1187    0.1736 C   0  0
   -3.4233  -10.6343    0.2814 C   0  0
   -3.3057  -11.9882    0.3677 N   0  0
   -4.0445  -12.6112    0.4511 H   0  0
   -1.9526  -12.3398    0.3168 N   0  0
   -1.2166  -11.2660    0.2024 C   0  0
    0.1395  -11.2258    0.1238 O   0  0
    0.8295  -12.4763    0.1714 C   0  0
    2.3364  -12.2315    0.0703 C   0  0
    3.0751  -13.5703    0.1213 C   0  0
    4.5220  -13.3353    0.0242 N   0  0
    4.8806  -12.7956   -1.2954 C   0  0
    6.3843  -12.5101   -1.3326 C   0  0
    7.0999  -13.7097   -1.0255 O   0  0
    6.7754  -14.2624    0.2530 C   0  0
    5.2757  -14.5656    0.3062 C   0  0
   -4.4486   -9.7823    0.2794 N   0  0
   -4.2446   -8.4873    0.1789 C   0  0
   -3.0370   -7.9598    0.0808 N   0  0
    1.4620    1.6649   -0.7895 H   0  0
    0.0496    3.2621    0.4897 H   0  0
   -1.7998    2.3974    1.8664 H   0  0
    0.9586   -0.7640   -0.6245 H   0  0
   -0.9210   -2.2426    1.8569 H   0  0
   -2.0223   -2.1071    0.4652 H   0  0
   -1.9200   -4.0072    1.3247 H   0  0
   -2.1900   -6.4530    1.3007 H   0  0
    1.1480   -6.7947   -1.3496 H   0  0
    0.0867   -8.7423   -0.1253 H   0  0
    0.6055  -12.9792    1.1121 H   0  0
    0.5063  -13.1015   -0.6608 H   0  0
    2.5605  -11.7285   -0.8705 H   0  0
    2.6596  -11.6062    0.9025 H   0  0
    2.8511  -14.0733    1.0620 H   0  0
    2.7519  -14.1956   -0.7110 H   0  0
    4.6291  -13.5233   -2.0669 H   0  0
    4.3303  -11.8715   -1.4726 H   0  0
    6.6645  -12.1636   -2.3273 H   0  0
    6.6274  -11.7430   -0.5973 H   0  0
    7.3385  -15.1833    0.4049 H   0  0
    7.0299  -13.5463    1.0343 H   0  0
    5.0137  -14.9337    1.2981 H   0  0
    5.0305  -15.3217   -0.4397 H   0  0
   -5.0993   -7.8271    0.1803 H   0  0
  1  6  4  0
  1  2  4  0
  1 37  1  0
  2  3  4  0
  2 38  1  0
  3  4  4  0
  3 39  1  0
  4  5  4  0
  5  6  4  0
  5  7  1  0
  6 40  1  0
  7  8  1  0
  7 41  1  0
  7 42  1  0
  8  9  1  0
  9 14  4  0
  9 10  4  0
 10 11  4  0
 10 43  1  0
 11 12  4  0
 11 44  1  0
 12 13  4  0
 12 16  1  0
 13 14  4  0
 13 45  1  0
 14 15  1  0
 16 17  1  0
 16 46  1  0
 17 36  4  0
 17 18  4  0
 18 23  1  0
 18 19  4  0
 19 20  1  0
 19 34  4  0
 20 21  1  0
 20 22  1  0
 22 23  2  0
 23 24  1  0
 24 25  1  0
 25 26  1  0
 25 47  1  0
 25 48  1  0
 26 27  1  0
 26 49  1  0
 26 50  1  0
 27 28  1  0
 27 51  1  0
 27 52  1  0
 28 33  1  0
 28 29  1  0
 29 30  1  0
 29 53  1  0
 29 54  1  0
 30 31  1  0
 30 55  1  0
 30 56  1  0
 31 32  1  0
 32 33  1  0
 32 57  1  0
 32 58  1  0
 33 59  1  0
 33 60  1  0
 34 35  4  0
 35 36  4  0
 35 61  1  0
M  END
> <Name>
CHEMBL257859

$$$$
CHEMBL281467
  SciTegic01042610103D

 37 39  0  0  0  0            999 V2000
   -1.7068   -7.4414   -6.8699 C   0  0
   -2.2756   -6.3002   -6.4910 C   0  0
   -2.8803   -6.1881   -5.1551 C   0  0
   -2.8603   -7.1389   -4.3968 O   0  0
   -3.4566   -5.0319   -4.7711 N   0  0
   -4.1251   -4.9570   -3.5441 C   0  0
   -3.6431   -5.6448   -2.4433 C   0  0
   -4.3504   -5.5356   -1.2371 C   0  0
   -3.9186   -6.2089   -0.0701 C   0  0
   -4.6816   -6.0476    1.0965 C   0  0
   -5.8263   -5.2363    1.0586 C   0  0
   -6.2012   -4.6256   -0.0365 N   0  0
   -5.5180   -4.7369   -1.1848 C   0  0
   -5.9324   -4.0978   -2.2825 N   0  0
   -5.2813   -4.1830   -3.4178 C   0  0
   -4.2974   -6.7031    2.3103 C   0  0
   -3.9927   -7.2231    3.2733 N   0  0
   -2.7865   -6.9971   -0.0788 N   0  0
   -2.8662   -8.3296   -0.4917 C   0  0
   -4.0855   -8.8629   -0.8915 C   0  0
   -4.1612  -10.1800   -1.2990 C   0  0
   -3.0254  -10.9689   -1.3096 C   0  0
   -1.8095  -10.4415   -0.9122 C   0  0
   -1.7259   -9.1223   -0.5087 C   0  0
   -0.2595  -11.5246   -0.9280 Br  0  0
   -1.2627   -7.5237   -7.8510 H   0  0
   -1.6852   -8.2842   -6.1949 H   0  0
   -2.2933   -5.4560   -7.1643 H   0  0
   -3.4079   -4.2516   -5.3453 H   0  0
   -2.7496   -6.2476   -2.5115 H   0  0
   -6.4133   -5.1129    1.9567 H   0  0
   -5.6511   -3.6450   -4.2782 H   0  0
   -1.9352   -6.6263    0.2016 H   0  0
   -4.9731   -8.2478   -0.8833 H   0  0
   -5.1088  -10.5948   -1.6094 H   0  0
   -3.0876  -11.9989   -1.6284 H   0  0
   -0.7758   -8.7095   -0.2031 H   0  0
  1  2  2  0
  1 26  1  0
  1 27  1  0
  2  3  1  0
  2 28  1  0
  3  4  2  0
  3  5  1  0
  5  6  1  0
  5 29  1  0
  6 15  4  0
  6  7  4  0
  7  8  4  0
  7 30  1  0
  8 13  4  0
  8  9  4  0
  9 10  4  0
  9 18  1  0
 10 11  4  0
 10 16  1  0
 11 12  4  0
 11 31  1  0
 12 13  4  0
 13 14  4  0
 14 15  4  0
 15 32  1  0
 16 17  3  0
 18 19  1  0
 18 33  1  0
 19 24  4  0
 19 20  4  0
 20 21  4  0
 20 34  1  0
 21 22  4  0
 21 35  1  0
 22 23  4  0
 22 36  1  0
 23 24  4  0
 23 25  1  0
 24 37  1  0
M  END
> <Name>
CHEMBL281467

$$$$
CHEMBL299622
  SciTegic01042610103D

 31 33  0  0  0  0            999 V2000
    0.9670    1.3795    0.5144 C   0  0
    0.7797   -0.0690    0.3998 N   0  0
    1.1896   -0.7316   -0.7446 C   0  0
    1.7558   -0.0284   -1.7227 N   0  0
    2.1664   -0.6009   -2.8350 C   0  0
    1.9943   -1.9904   -2.9753 C   0  0
    1.3880   -2.7015   -1.9123 C   0  0
    1.0086   -2.0370   -0.8210 N   0  0
    1.2167   -4.1011   -2.0581 C   0  0
    1.6336   -4.6673   -3.1817 N   0  0
    2.1954   -3.9580   -4.1479 C   0  0
    2.3793   -2.6609   -4.0669 N   0  0
    0.6329   -4.8530   -1.0582 N   0  0
    0.5829   -6.2452   -1.1695 C   0  0
    1.6219   -6.9321   -1.7851 C   0  0
    1.5699   -8.3077   -1.8937 C   0  0
    0.4848   -9.0022   -1.3909 C   0  0
   -0.5518   -8.3217   -0.7772 C   0  0
   -0.5027   -6.9455   -0.6599 C   0  0
   -2.0332   -9.2762   -0.0914 Br  0  0
    2.0285    1.6156    0.4394 H   0  0
    0.4257    1.8805   -0.2881 H   0  0
    0.5862    1.7200    1.4773 H   0  0
    0.3684   -0.5638    1.1257 H   0  0
    2.6239   -0.0181   -3.6208 H   0  0
    2.5172   -4.4696   -5.0430 H   0  0
    0.2573   -4.4149   -0.2784 H   0  0
    2.4694   -6.3906   -2.1787 H   0  0
    2.3774   -8.8419   -2.3722 H   0  0
    0.4464  -10.0780   -1.4779 H   0  0
   -1.3099   -6.4149   -0.1768 H   0  0
  1  2  1  0
  1 21  1  0
  1 22  1  0
  1 23  1  0
  2  3  1  0
  2 24  1  0
  3  8  4  0
  3  4  4  0
  4  5  4  0
  5  6  4  0
  5 25  1  0
  6 12  4  0
  6  7  4  0
  7  8  4  0
  7  9  4  0
  9 10  4  0
  9 13  1  0
 10 11  4  0
 11 12  4  0
 11 26  1  0
 13 14  1  0
 13 27  1  0
 14 19  4  0
 14 15  4  0
 15 16  4  0
 15 28  1  0
 16 17  4  0
 16 29  1  0
 17 18  4  0
 17 30  1  0
 18 19  4  0
 18 20  1  0
 19 31  1  0
M  END
> <Name>
CHEMBL299622

$$$$
CHEMBL26641
  SciTegic01042610103D

 55 58  0  0  0  0            999 V2000
    0.2580    1.4855   -0.1415 C   0  0
    0.5786    0.1044   -0.3200 O   0  0
    1.2731   -0.5023    0.6793 C   0  0
    1.6232    0.2128    1.7893 C   0  0
    2.3377   -0.4109    2.8189 C   0  0
    2.6934   -1.7778    2.7046 C   0  0
    2.3242   -2.4916    1.5581 C   0  0
    1.6168   -1.8562    0.5615 C   0  0
    1.2529   -2.5476   -0.5497 O   0  0
    1.6324   -3.9240   -0.6107 C   0  0
    1.1389   -4.5313   -1.9255 C   0  0
    1.5453   -6.0049   -1.9908 C   0  0
    3.0716   -6.1129   -2.0531 C   0  0
    3.4678   -7.5838   -2.1983 C   0  0
    2.8864   -8.1316   -3.4297 N   0  0
    1.4213   -8.0972   -3.3469 C   0  0
    0.9463   -6.6461   -3.2459 C   0  0
    3.3781   -2.3519    3.7063 N   0  0
    3.7097   -1.6576    4.7687 C   0  0
    3.3991   -0.3798    4.9194 N   0  0
    2.7245    0.2840    3.9897 C   0  0
    2.4081    1.6166    4.1597 N   0  0
    2.9145    2.3215    5.2577 C   0  0
    4.0154    1.8345    5.9493 C   0  0
    4.5135    2.5323    7.0324 C   0  0
    3.9170    3.7160    7.4293 C   0  0
    2.8197    4.2052    6.7431 C   0  0
    2.3194    3.5141    5.6547 C   0  0
    1.2514    3.9945    4.9811 F   0  0
    4.6026    4.6668    8.9131 Br  0  0
    1.1774    2.0608   -0.0326 H   0  0
   -0.2951    1.8452   -1.0091 H   0  0
   -0.3528    1.6040    0.7535 H   0  0
    1.3503    1.2545    1.8720 H   0  0
    2.5886   -3.5339    1.4576 H   0  0
    2.7182   -4.0041   -0.5584 H   0  0
    1.1876   -4.4610    0.2271 H   0  0
    0.0531   -4.4511   -1.9778 H   0  0
    1.5837   -3.9943   -2.7633 H   0  0
    1.1778   -6.5239   -1.1055 H   0  0
    3.4416   -5.5500   -2.9100 H   0  0
    3.5028   -5.7085   -1.1374 H   0  0
    4.5539   -7.6643   -2.2428 H   0  0
    3.0975   -8.1457   -1.3409 H   0  0
    3.1907   -7.5806   -4.2183 H   0  0
    0.9965   -8.5568   -4.2393 H   0  0
    1.0946   -8.6482   -2.4650 H   0  0
   -0.1416   -6.6228   -3.1827 H   0  0
    1.2722   -6.0942   -4.1275 H   0  0
    4.2606   -2.1508    5.5559 H   0  0
    1.8349    2.0647    3.5182 H   0  0
    4.4818    0.9105    5.6409 H   0  0
    5.3697    2.1531    7.5705 H   0  0
    2.3559    5.1292    7.0553 H   0  0
    3.1931   -9.0853   -3.5499 H   0  0
  1  2  1  0
  1 31  1  0
  1 32  1  0
  1 33  1  0
  2  3  1  0
  3  8  4  0
  3  4  4  0
  4  5  4  0
  4 34  1  0
  5 21  4  0
  5  6  4  0
  6  7  4  0
  6 18  4  0
  7  8  4  0
  7 35  1  0
  8  9  1  0
  9 10  1  0
 10 11  1  0
 10 36  1  0
 10 37  1  0
 11 12  1  0
 11 38  1  0
 11 39  1  0
 12 17  1  0
 12 13  1  0
 12 40  1  0
 13 14  1  0
 13 41  1  0
 13 42  1  0
 14 15  1  0
 14 43  1  0
 14 44  1  0
 15 16  1  0
 15 45  1  0
 15 55  1  0
 16 17  1  0
 16 46  1  0
 16 47  1  0
 17 48  1  0
 17 49  1  0
 18 19  4  0
 19 20  4  0
 19 50  1  0
 20 21  4  0
 21 22  1  0
 22 23  1  0
 22 51  1  0
 23 28  4  0
 23 24  4  0
 24 25  4  0
 24 52  1  0
 25 26  4  0
 25 53  1  0
 26 27  4  0
 26 30  1  0
 27 28  4  0
 27 54  1  0
 28 29  1  0
M  END
> <Name>
CHEMBL26641

$$$$
CHEMBL207037
  SciTegic01042610103D

 49 52  0  0  0  0            999 V2000
   -1.4181    1.1808    0.8895 C   0  0
   -1.1134   -0.2030    0.7042 O   0  0
   -0.2867   -0.7794    1.6144 C   0  0
    0.2088   -0.0266    2.6582 C   0  0
    1.0599   -0.6245    3.5941 C   0  0
    1.3974   -1.9935    3.4520 C   0  0
    0.8789   -2.7318    2.3819 C   0  0
    0.0478   -2.1300    1.4858 C   0  0
   -0.5132   -2.9293    0.3381 C   0  0
    0.2656   -2.6546   -0.8769 N   0  0
   -0.2121   -1.4774   -1.6259 C   0  0
    0.0842   -2.2495   -2.9192 C   0  0  2  0  0  0
   -0.1357   -3.4815   -2.0302 C   0  0
    1.4969   -2.0945   -3.4205 C   0  0
    2.2851   -1.4047   -2.8091 O   0  0
    1.8845   -2.7225   -4.5483 N   0  0
    2.2600   -2.5718    4.4138 C   0  0
    2.7076   -1.8027    5.3980 N   0  0
    2.3650   -0.5279    5.4902 C   0  0
    1.5698    0.0614    4.6290 N   0  0
    2.6250   -3.8995    4.3303 N   0  0
    3.3650   -4.4877    5.3620 C   0  0
    3.4031   -3.8943    6.6168 C   0  0
    4.1339   -4.4771    7.6339 C   0  0
    4.8281   -5.6509    7.4051 C   0  0
    4.7936   -6.2466    6.1565 C   0  0
    4.0591   -5.6709    5.1345 C   0  0
    4.0204   -6.2548    3.9168 F   0  0
    5.6671   -7.7200    5.8737 Cl  0  0
   -0.4971    1.7630    0.8586 H   0  0
   -2.0861    1.5152    0.0957 H   0  0
   -1.9036    1.3198    1.8554 H   0  0
   -0.0577    1.0158    2.7524 H   0  0
    1.1336   -3.7753    2.2692 H   0  0
   -0.4564   -3.9921    0.5734 H   0  0
   -1.5535   -2.6486    0.1740 H   0  0
   -1.2716   -1.2690   -1.4776 H   0  0
    0.4143   -0.5951   -1.4937 H   0  0
   -0.6677   -2.1210   -3.6979 H   0  0
    0.5553   -4.2978   -2.2407 H   0  0
   -1.1749   -3.8079   -1.9898 H   0  0
    1.2541   -3.2743   -5.0373 H   0  0
    2.7938   -2.6228   -4.8709 H   0  0
    2.7573    0.0535    6.3115 H   0  0
    2.3688   -4.4253    3.5565 H   0  0
    2.8619   -2.9773    6.7974 H   0  0
    4.1635   -4.0149    8.6095 H   0  0
    5.3987   -6.1036    8.2025 H   0  0
    1.2612   -2.6503   -0.7133 H   0  0
  1  2  1  0
  1 30  1  0
  1 31  1  0
  1 32  1  0
  2  3  1  0
  3  8  4  0
  3  4  4  0
  4  5  4  0
  4 33  1  0
  5 20  4  0
  5  6  4  0
  6  7  4  0
  6 17  4  0
  7  8  4  0
  7 34  1  0
  8  9  1  0
  9 10  1  0
  9 35  1  0
  9 36  1  0
 10 13  1  0
 10 11  1  0
 10 49  1  0
 11 12  1  0
 11 37  1  0
 11 38  1  0
 12 13  1  0
 12 14  1  0
 12 39  1  0
 13 40  1  0
 13 41  1  0
 14 15  2  0
 14 16  1  0
 16 42  1  0
 16 43  1  0
 17 18  4  0
 17 21  1  0
 18 19  4  0
 19 20  4  0
 19 44  1  0
 21 22  1  0
 21 45  1  0
 22 27  4  0
 22 23  4  0
 23 24  4  0
 23 46  1  0
 24 25  4  0
 24 47  1  0
 25 26  4  0
 25 48  1  0
 26 27  4  0
 26 29  1  0
 27 28  1  0
M  END
> <Name>
CHEMBL207037

$$$$
CHEMBL515082
  SciTegic01042610103D

 65 69  0  0  0  0            999 V2000
    1.0889    3.1135    0.0879 C   0  0
    0.7901    1.3275   -0.0199 S   0  0
    1.4520    0.6946    1.0666 O   0  0
   -0.6036    1.1149   -0.1984 O   0  0
    1.6414    0.8708   -1.5552 C   0  0
    1.4838   -0.6315   -1.7983 C   0  0
    2.1733   -1.0014   -3.0416 N   0  0
    2.0429   -2.4402   -3.3078 C   0  0
    2.7610   -2.7812   -4.5881 C   0  0
    4.0068   -3.1457   -4.7452 N   0  0
    4.5005   -3.4158   -5.9453 C   0  0
    3.6384   -3.2923   -7.0022 C   0  0
    2.1487   -2.7908   -6.1554 S   0  0
    5.9123   -3.8295   -6.1336 C   0  0
    6.3928   -4.0993   -7.4238 C   0  0
    7.6832   -4.4807   -7.6232 C   0  0
    8.5519   -4.6080   -6.5294 C   0  0
    8.0756   -4.3371   -5.2227 C   0  0
    6.7486   -3.9412   -5.0349 C   0  0
    8.9783   -4.4744   -4.1392 C   0  0
   10.2228   -4.8496   -4.4042 N   0  0
   10.6223   -5.0918   -5.6423 C   0  0
    9.8311   -4.9810   -6.6829 N   0  0
    8.5743   -4.2245   -2.8443 N   0  0
    9.5090   -4.2482   -1.8025 C   0  0
    9.1430   -4.7281   -0.5516 C   0  0
   10.0653   -4.7513    0.4760 C   0  0
   11.3572   -4.2954    0.2596 C   0  0
   11.7243   -3.8155   -0.9900 C   0  0
   10.8039   -3.7971   -2.0208 C   0  0
   13.3414   -3.2445   -1.2599 Cl  0  0
   12.2646   -4.3183    1.2724 O   0  0
   11.8184   -4.8247    2.5320 C   0  0
   12.9516   -4.7729    3.5241 C   0  0
   13.8094   -5.8495    3.6504 C   0  0
   14.8488   -5.8021    4.5605 C   0  0
   15.0306   -4.6778    5.3440 C   0  0
   14.1734   -3.6008    5.2170 C   0  0
   13.1366   -3.6466    4.3039 C   0  0
    2.1619    3.3004    0.1301 H   0  0
    0.6684    3.6058   -0.7889 H   0  0
    0.6158    3.5073    0.9875 H   0  0
    1.2066    1.4214   -2.3894 H   0  0
    2.7001    1.1160   -1.4704 H   0  0
    1.9186   -1.1822   -0.9641 H   0  0
    0.4251   -0.8768   -1.8831 H   0  0
    1.8322   -0.4573   -3.8198 H   0  0
    2.4816   -3.0033   -2.4841 H   0  0
    0.9881   -2.6980   -3.4031 H   0  0
    3.8109   -3.4564   -8.0556 H   0  0
    5.7290   -4.0032   -8.2703 H   0  0
    8.0383   -4.6857   -8.6224 H   0  0
    6.3777   -3.7287   -4.0431 H   0  0
   11.6466   -5.3941   -5.8034 H   0  0
    7.6424   -4.0323   -2.6556 H   0  0
    8.1371   -5.0829   -0.3824 H   0  0
    9.7804   -5.1243    1.4487 H   0  0
   11.0906   -3.4281   -2.9945 H   0  0
   10.9896   -4.2168    2.8949 H   0  0
   11.4873   -5.8562    2.4121 H   0  0
   13.6672   -6.7279    3.0383 H   0  0
   15.5185   -6.6435    4.6597 H   0  0
   15.8423   -4.6410    6.0555 H   0  0
   14.3153   -2.7225    5.8294 H   0  0
   12.4691   -2.8037    4.2021 H   0  0
  1  2  1  0
  1 40  1  0
  1 41  1  0
  1 42  1  0
  2  3  2  0
  2  4  2  0
  2  5  1  0
  5  6  1  0
  5 43  1  0
  5 44  1  0
  6  7  1  0
  6 45  1  0
  6 46  1  0
  7  8  1  0
  7 47  1  0
  8  9  1  0
  8 48  1  0
  8 49  1  0
  9 13  1  0
  9 10  2  0
 10 11  1  0
 11 12  2  0
 11 14  1  0
 12 13  1  0
 12 50  1  0
 14 19  4  0
 14 15  4  0
 15 16  4  0
 15 51  1  0
 16 17  4  0
 16 52  1  0
 17 23  4  0
 17 18  4  0
 18 19  4  0
 18 20  4  0
 19 53  1  0
 20 21  4  0
 20 24  1  0
 21 22  4  0
 22 23  4  0
 22 54  1  0
 24 25  1  0
 24 55  1  0
 25 30  4  0
 25 26  4  0
 26 27  4  0
 26 56  1  0
 27 28  4  0
 27 57  1  0
 28 29  4  0
 28 32  1  0
 29 30  4  0
 29 31  1  0
 30 58  1  0
 32 33  1  0
 33 34  1  0
 33 59  1  0
 33 60  1  0
 34 39  4  0
 34 35  4  0
 35 36  4  0
 35 61  1  0
 36 37  4  0
 36 62  1  0
 37 38  4  0
 37 63  1  0
 38 39  4  0
 38 64  1  0
 39 65  1  0
M  END
> <Name>
CHEMBL515082

$$$$
CHEMBL179458
  SciTegic01042610103D

 61 64  0  0  0  0            999 V2000
    4.7773   -0.0235    6.8953 C   0  0
    4.7680   -0.7746    8.1578 N   0  0
    6.1496   -1.0060    8.6000 C   0  0
    4.0490   -0.0037    9.1809 C   0  0
    2.6009    0.1284    8.7849 C   0  0
    1.6442   -0.2645    9.6213 C   0  0
    0.2311   -0.1355    9.2349 C   0  0
   -0.0628    0.3305    8.1505 O   0  0
   -0.7383   -0.5337   10.0824 N   0  0
   -2.0822   -0.2989    9.7686 C   0  0
   -2.4166    0.7341    8.9219 C   0  0
   -3.7633    0.9676    8.6087 C   0  0
   -4.7718    0.1424    9.1628 C   0  0
   -4.4065   -0.9039   10.0235 C   0  0
   -3.0796   -1.1216   10.3144 C   0  0
   -2.7316   -2.1401   11.1432 O   0  0
   -3.7923   -2.9419   11.6666 C   0  0
   -6.0614    0.3610    8.8658 N   0  0
   -6.4354    1.3274    8.0668 C   0  0
   -5.5035    2.1936    7.4728 C   0  0
   -4.1372    2.0208    7.7417 C   0  0
   -3.1892    2.8507    7.1779 N   0  0
   -3.1392    4.2010    7.5378 C   0  0
   -3.4683    4.5881    8.8311 C   0  0
   -3.4186    5.9209    9.1866 C   0  0
   -3.0398    6.8753    8.2523 C   0  0
   -2.7110    6.4894    6.9589 C   0  0
   -2.7551    5.1550    6.6041 C   0  0
   -2.2379    7.6831    5.7905 Cl  0  0
   -2.9894    8.2307    8.6146 N   0  0
   -1.9474    9.0940    8.3966 C   0  0
   -2.3176   10.2872    8.8997 C   0  0
   -3.5507   10.1611    9.4117 N   0  0
   -3.9661    8.9353    9.2417 C   0  0
   -5.9428    3.2425    6.6024 C   0  0
   -6.2912    4.0745    5.9119 N   0  0
    5.2758    0.9341    7.0459 H   0  0
    5.3108   -0.5954    6.1362 H   0  0
    3.7522    0.1483    6.5672 H   0  0
    6.6481   -0.0485    8.7506 H   0  0
    6.1427   -1.5634    9.5368 H   0  0
    6.6831   -1.5780    7.8409 H   0  0
    4.1181   -0.5187   10.1391 H   0  0
    4.4937    0.9876    9.2682 H   0  0
    2.3400    0.5422    7.8221 H   0  0
    1.9052   -0.6783   10.5842 H   0  0
   -0.5048   -0.9829   10.9098 H   0  0
   -1.6451    1.3620    8.5011 H   0  0
   -5.1657   -1.5405   10.4533 H   0  0
   -4.4718   -2.3141   12.2432 H   0  0
   -4.3365   -3.4064   10.8443 H   0  0
   -3.3779   -3.7166   12.3116 H   0  0
   -7.4867    1.4618    7.8587 H   0  0
   -2.5576    2.4972    6.5321 H   0  0
   -3.7634    3.8460    9.5582 H   0  0
   -3.6748    6.2214   10.1918 H   0  0
   -2.4953    4.8541    5.5999 H   0  0
   -1.0093    8.8618    7.9143 H   0  0
   -1.7239   11.1893    8.8925 H   0  0
   -4.9249    8.5460    9.5509 H   0  0
    4.3065   -1.6610    8.0184 H   0  0
  1  2  1  0
  1 37  1  0
  1 38  1  0
  1 39  1  0
  2  3  1  0
  2  4  1  0
  2 61  1  0
  3 40  1  0
  3 41  1  0
  3 42  1  0
  4  5  1  0
  4 43  1  0
  4 44  1  0
  5  6  2  0
  5 45  1  0
  6  7  1  0
  6 46  1  0
  7  8  2  0
  7  9  1  0
  9 10  1  0
  9 47  1  0
 10 15  4  0
 10 11  4  0
 11 12  4  0
 11 48  1  0
 12 21  4  0
 12 13  4  0
 13 14  4  0
 13 18  4  0
 14 15  4  0
 14 49  1  0
 15 16  1  0
 16 17  1  0
 17 50  1  0
 17 51  1  0
 17 52  1  0
 18 19  4  0
 19 20  4  0
 19 53  1  0
 20 21  4  0
 20 35  1  0
 21 22  1  0
 22 23  1  0
 22 54  1  0
 23 28  4  0
 23 24  4  0
 24 25  4  0
 24 55  1  0
 25 26  4  0
 25 56  1  0
 26 27  4  0
 26 30  1  0
 27 28  4  0
 27 29  1  0
 28 57  1  0
 30 34  1  0
 30 31  1  0
 31 32  2  0
 31 58  1  0
 32 33  1  0
 32 59  1  0
 33 34  2  0
 34 60  1  0
 35 36  3  0
M  END
> <Name>
CHEMBL179458

$$$$
CHEMBL249511
  SciTegic01042610103D

 40 43  0  0  0  0            999 V2000
    0.0998    1.2206    1.8427 C   0  0
    1.2829    1.9379    1.8156 C   0  0
    2.4774    1.2952    1.5658 C   0  0
    2.4910   -0.0839    1.3403 C   0  0
    1.2923   -0.8016    1.3697 C   0  0
    0.1055   -0.1453    1.6203 C   0  0
    3.7272   -0.7581    1.0798 C   0  0
    4.7406   -1.3109    0.8662 C   0  0
    5.9768   -1.9852    0.6058 C   0  0
    7.1795   -1.2564    0.5831 C   0  0
    8.3648   -1.8744    0.3381 C   0  0
    8.3988   -3.2577    0.1035 C   0  0
    7.1927   -4.0022    0.1240 C   0  0
    5.9818   -3.3568    0.3825 C   0  0
    7.2630   -5.3973   -0.1164 C   0  0
    8.4540   -5.9339   -0.3480 N   0  0
    9.5531   -5.1976   -0.3571 C   0  0
    9.5482   -3.9032   -0.1413 N   0  0
    6.1246   -6.1756   -0.1092 N   0  0
    6.2269   -7.5657   -0.2284 C   0  0
    5.2606   -8.2766   -0.9285 C   0  0
    5.3632   -9.6489   -1.0457 C   0  0
    6.4285  -10.3167   -0.4659 C   0  0
    7.3937   -9.6101    0.2336 C   0  0
    7.2976   -8.2359    0.3482 C   0  0
    8.7277  -10.4502    0.9605 Cl  0  0
    6.5268  -11.6592   -0.5818 F   0  0
   -0.8320    1.7285    2.0429 H   0  0
    1.2708    3.0036    1.9901 H   0  0
    3.3999    1.8564    1.5443 H   0  0
    1.2952   -1.8676    1.1959 H   0  0
   -0.8217   -0.6986    1.6430 H   0  0
    7.1608   -0.1915    0.7624 H   0  0
    9.2801   -1.3013    0.3235 H   0  0
    5.0586   -3.9168    0.4046 H   0  0
   10.4977   -5.6841   -0.5509 H   0  0
    5.2530   -5.7592   -0.0215 H   0  0
    4.4291   -7.7565   -1.3808 H   0  0
    4.6116  -10.2016   -1.5898 H   0  0
    8.0522   -7.6846    0.8895 H   0  0
  1  6  4  0
  1  2  4  0
  1 28  1  0
  2  3  4  0
  2 29  1  0
  3  4  4  0
  3 30  1  0
  4  5  4  0
  4  7  1  0
  5  6  4  0
  5 31  1  0
  6 32  1  0
  7  8  3  0
  8  9  1  0
  9 14  4  0
  9 10  4  0
 10 11  4  0
 10 33  1  0
 11 12  4  0
 11 34  1  0
 12 18  4  0
 12 13  4  0
 13 14  4  0
 13 15  4  0
 14 35  1  0
 15 16  4  0
 15 19  1  0
 16 17  4  0
 17 18  4  0
 17 36  1  0
 19 20  1  0
 19 37  1  0
 20 25  4  0
 20 21  4  0
 21 22  4  0
 21 38  1  0
 22 23  4  0
 22 39  1  0
 23 24  4  0
 23 27  1  0
 24 25  4  0
 24 26  1  0
 25 40  1  0
M  END
> <Name>
CHEMBL249511

$$$$
CHEMBL1095761
  SciTegic01042610103D

 41 44  0  0  0  0            999 V2000
    1.0884   -0.4658    0.7432 C   0  0
    2.2771    0.2375    0.7305 C   0  0
    2.3813    1.4099   -0.0069 C   0  0
    1.2886    1.8716   -0.7299 C   0  0
    0.1023    1.1635   -0.7132 C   0  0
    0.0024   -0.0043    0.0229 C   0  0
   -1.3863    1.7909   -1.6962 Br  0  0
    3.5829    2.1239   -0.0212 N   0  0
    4.7888    1.4509    0.0681 C   0  0
    5.9987    2.1554    0.1723 C   0  0
    6.3715    3.5689    0.2171 C   0  0
    7.7089    3.6146    0.3244 C   0  0
    8.2166    2.3397    0.3515 N   0  0
    9.1579    2.1172    0.4248 H   0  0
    7.2000    1.4292    0.2606 C   0  0
    7.1442    0.0980    0.2420 N   0  0
    5.9833   -0.5268    0.1426 C   0  0
    4.8283    0.1225    0.0628 N   0  0
    5.9714   -1.9117    0.1265 N   0  0
    8.5295    4.8761    0.4029 C   0  0
    8.5869    5.3499    1.8324 C   0  0
    7.6846    6.2949    2.2839 C   0  0
    7.7366    6.7299    3.5946 C   0  0
    8.6917    6.2193    4.4560 C   0  0
    9.5944    5.2735    4.0049 C   0  0
    9.5388    4.8349    2.6939 C   0  0
   10.6675    3.6433    2.1285 Cl  0  0
    8.7572    6.7663    6.1023 Cl  0  0
    1.0086   -1.3798    1.3130 H   0  0
    3.1248   -0.1237    1.2939 H   0  0
    1.3663    2.7831   -1.3040 H   0  0
   -0.9258   -0.5563    0.0342 H   0  0
    3.5714    3.0912   -0.0938 H   0  0
    5.6999    4.4135    0.1724 H   0  0
    6.8046   -2.4046    0.1876 H   0  0
    5.1299   -2.3887    0.0542 H   0  0
    9.5396    4.6753    0.0459 H   0  0
    8.0714    5.6467   -0.2172 H   0  0
    6.9390    6.6937    1.6120 H   0  0
    7.0319    7.4687    3.9466 H   0  0
   10.3400    4.8747    4.6768 H   0  0
  1  6  4  0
  1  2  4  0
  1 29  1  0
  2  3  4  0
  2 30  1  0
  3  4  4  0
  3  8  1  0
  4  5  4  0
  4 31  1  0
  5  6  4  0
  5  7  1  0
  6 32  1  0
  8  9  1  0
  8 33  1  0
  9 18  4  0
  9 10  4  0
 10 15  4  0
 10 11  1  0
 11 12  2  0
 11 34  1  0
 12 13  1  0
 12 20  1  0
 13 14  1  0
 13 15  1  0
 15 16  4  0
 16 17  4  0
 17 18  4  0
 17 19  1  0
 19 35  1  0
 19 36  1  0
 20 21  1  0
 20 37  1  0
 20 38  1  0
 21 26  4  0
 21 22  4  0
 22 23  4  0
 22 39  1  0
 23 24  4  0
 23 40  1  0
 24 25  4  0
 24 28  1  0
 25 26  4  0
 25 41  1  0
 26 27  1  0
M  END
> <Name>
CHEMBL1095761

$$$$
CHEMBL472545
  SciTegic01042610103D

 62 66  0  0  0  0            999 V2000
    0.1000    1.8943    1.2831 C   0  0
    0.1704    0.8343    2.1676 C   0  0
    1.3942    0.2678    2.4715 C   0  0
    2.5475    0.7609    1.8905 C   0  0
    2.4770    1.8203    1.0053 C   0  0
    1.2534    2.3878    0.7025 C   0  0
    3.8817    0.1440    2.2226 C   0  0
    4.1581   -0.9159    1.3048 O   0  0
    5.3326   -1.5823    1.4666 C   0  0
    6.1964   -1.2256    2.4914 C   0  0
    7.3891   -1.9019    2.6568 C   0  0
    7.7240   -2.9398    1.7969 C   0  0
    6.8592   -3.2970    0.7709 C   0  0
    5.6636   -2.6228    0.6097 C   0  0
    4.5785   -3.0733   -0.6684 Cl  0  0
    8.9332   -3.6253    1.9641 N   0  0
    9.4575   -3.8039    3.2318 C   0  0
   10.7262   -4.3847    3.4060 C   0  0
   11.2055   -4.5401    4.7185 C   0  0
   10.4445   -4.1344    5.7316 N   0  0
    9.2611   -3.5952    5.5191 C   0  0
    8.7726   -3.4242    4.3072 N   0  0
   12.4457   -5.1051    4.9524 N   0  0
   11.5294   -4.8180    2.2474 C   0  0
   11.1893   -4.7190    0.9821 N   0  0
   12.1335   -5.1973    0.2505 N   0  0
   13.1048   -5.6167    1.0108 C   0  0
   12.7524   -5.3845    2.2884 O   0  0
   14.3927   -6.2444    0.5434 C   0  0
   15.4415   -5.1526    0.3226 C   0  0
   16.6969   -5.7644   -0.1330 N   0  0
   17.2886   -6.6005    0.9216 C   0  0
   18.5599   -7.2643    0.3858 C   0  0
   19.4617   -6.2541   -0.0741 O   0  0
   18.9180   -5.4217   -1.1021 C   0  0
   17.6503   -4.7392   -0.5815 C   0  0
   -0.8566    2.3340    1.0422 H   0  0
   -0.7307    0.4490    2.6215 H   0  0
    1.4492   -0.5599    3.1631 H   0  0
    3.3781    2.2059    0.5517 H   0  0
    1.1984    3.2157    0.0112 H   0  0
    4.6613    0.9021    2.1476 H   0  0
    3.8564   -0.2519    3.2378 H   0  0
    5.9364   -0.4184    3.1601 H   0  0
    8.0615   -1.6235    3.4548 H   0  0
    7.1189   -4.1039    0.1018 H   0  0
    9.4033   -3.9750    1.1911 H   0  0
    8.6729   -3.2783    6.3676 H   0  0
   12.9934   -5.3983    4.2074 H   0  0
   12.7680   -5.2083    5.8614 H   0  0
   14.7505   -6.9446    1.2982 H   0  0
   14.2191   -6.7761   -0.3922 H   0  0
   15.0836   -4.4524   -0.4322 H   0  0
   15.6150   -4.6209    1.2582 H   0  0
   17.5373   -5.9792    1.7819 H   0  0
   16.5752   -7.3684    1.2204 H   0  0
   19.0331   -7.8397    1.1815 H   0  0
   18.3038   -7.9272   -0.4407 H   0  0
   19.6501   -4.6644   -1.3825 H   0  0
   18.6722   -6.0310   -1.9719 H   0  0
   17.2009   -4.1485   -1.3797 H   0  0
   17.9048   -4.0881    0.2549 H   0  0
  1  6  4  0
  1  2  4  0
  1 37  1  0
  2  3  4  0
  2 38  1  0
  3  4  4  0
  3 39  1  0
  4  5  4  0
  4  7  1  0
  5  6  4  0
  5 40  1  0
  6 41  1  0
  7  8  1  0
  7 42  1  0
  7 43  1  0
  8  9  1  0
  9 14  4  0
  9 10  4  0
 10 11  4  0
 10 44  1  0
 11 12  4  0
 11 45  1  0
 12 13  4  0
 12 16  1  0
 13 14  4  0
 13 46  1  0
 14 15  1  0
 16 17  1  0
 16 47  1  0
 17 22  4  0
 17 18  4  0
 18 19  4  0
 18 24  1  0
 19 20  4  0
 19 23  1  0
 20 21  4  0
 21 22  4  0
 21 48  1  0
 23 49  1  0
 23 50  1  0
 24 28  1  0
 24 25  2  0
 25 26  1  0
 26 27  2  0
 27 28  1  0
 27 29  1  0
 29 30  1  0
 29 51  1  0
 29 52  1  0
 30 31  1  0
 30 53  1  0
 30 54  1  0
 31 36  1  0
 31 32  1  0
 32 33  1  0
 32 55  1  0
 32 56  1  0
 33 34  1  0
 33 57  1  0
 33 58  1  0
 34 35  1  0
 35 36  1  0
 35 59  1  0
 35 60  1  0
 36 61  1  0
 36 62  1  0
M  END
> <Name>
CHEMBL472545

$$$$
CHEMBL339416
  SciTegic01042610103D

 52 55  0  0  0  0            999 V2000
    1.0884   -0.4657    0.7435 C   0  0
    2.2772    0.2376    0.7307 C   0  0
    2.3812    1.4099   -0.0068 C   0  0
    1.2886    1.8716   -0.7297 C   0  0
    0.1022    1.1635   -0.7129 C   0  0
    0.0024   -0.0042    0.0232 C   0  0
   -1.3862    1.7905   -1.6964 Br  0  0
    3.5829    2.1240   -0.0212 N   0  0
    4.7841    1.4536    0.0677 C   0  0
    6.0050    2.1594    0.1729 C   0  0
    6.0720    3.5546    0.1931 C   0  0
    7.2368    4.1559    0.2927 N   0  0
    8.3837    3.4861    0.3776 C   0  0
    8.4168    2.1036    0.3660 C   0  0
    7.2070    1.4078    0.2615 C   0  0
    7.1372    0.0709    0.2422 N   0  0
    5.9736   -0.5303    0.1427 C   0  0
    4.8278    0.1263    0.0627 N   0  0
    9.5754    4.1921    0.4799 N   0  0
   10.8477    3.4719    0.5744 C   0  0
   11.9965    4.4773    0.6762 C   0  0
   13.3252    3.7251    0.7748 C   0  0
   14.4282    4.6904    0.8726 N   0  0
   14.3125    5.4382    2.1247 O   0  0
   14.3661    5.6219   -0.2621 C   0  0
   15.5162    6.6267   -0.1579 C   0  0
   16.7589    5.9193   -0.1262 O   0  0
   16.8580    4.9813    0.9490 C   0  0
   15.7105    3.9734    0.8468 C   0  0
    1.0086   -1.3797    1.3133 H   0  0
    3.1249   -0.1236    1.2940 H   0  0
    1.3662    2.7830   -1.3039 H   0  0
   -0.9259   -0.5561    0.0349 H   0  0
    3.5715    3.0912   -0.0938 H   0  0
    5.1665    4.1395    0.1266 H   0  0
    9.3549    1.5730    0.4354 H   0  0
    5.9509   -1.6099    0.1294 H   0  0
    9.5653    5.1620    0.4887 H   0  0
   10.8409    2.8370    1.4604 H   0  0
   10.9826    2.8547   -0.3139 H   0  0
   12.0033    5.1121   -0.2098 H   0  0
   11.8615    5.0945    1.5644 H   0  0
   13.3184    3.0903    1.6608 H   0  0
   13.4601    3.1079   -0.1134 H   0  0
   14.4534    5.0649   -1.1950 H   0  0
   13.4152    6.1544   -0.2439 H   0  0
   15.4978    7.2918   -1.0212 H   0  0
   15.4069    7.2115    0.7554 H   0  0
   17.8109    4.4556    0.8867 H   0  0
   16.7947    5.5098    1.9002 H   0  0
   15.7576    3.2822    1.6883 H   0  0
   15.7973    3.4170   -0.0865 H   0  0
  1  6  4  0
  1  2  4  0
  1 30  1  0
  2  3  4  0
  2 31  1  0
  3  4  4  0
  3  8  1  0
  4  5  4  0
  4 32  1  0
  5  6  4  0
  5  7  1  0
  6 33  1  0
  8  9  1  0
  8 34  1  0
  9 18  4  0
  9 10  4  0
 10 15  4  0
 10 11  4  0
 11 12  4  0
 11 35  1  0
 12 13  4  0
 13 14  4  0
 13 19  1  0
 14 15  4  0
 14 36  1  0
 15 16  4  0
 16 17  4  0
 17 18  4  0
 17 37  1  0
 19 20  1  0
 19 38  1  0
 20 21  1  0
 20 39  1  0
 20 40  1  0
 21 22  1  0
 21 41  1  0
 21 42  1  0
 22 23  1  0
 22 43  1  0
 22 44  1  0
 23 29  1  0
 23 24  1  0
 23 25  1  0
 25 26  1  0
 25 45  1  0
 25 46  1  0
 26 27  1  0
 26 47  1  0
 26 48  1  0
 27 28  1  0
 28 29  1  0
 28 49  1  0
 28 50  1  0
 29 51  1  0
 29 52  1  0
M  END
> <Name>
CHEMBL339416

$$$$
CHEMBL299672
  SciTegic01042610103D

 55 58  0  0  0  0            999 V2000
   -0.1036    1.4281   -0.8716 C   0  0
   -0.0864   -0.0007   -0.8902 O   0  0
   -1.2669   -0.6347   -0.6663 C   0  0
   -2.4061    0.1062   -0.4415 C   0  0
   -3.6213   -0.5499   -0.2110 C   0  0
   -3.6596   -1.9664   -0.2127 C   0  0
   -2.4874   -2.6960   -0.4438 C   0  0
   -1.3135   -2.0356   -0.6722 C   0  0
   -0.1766   -2.7453   -0.9024 O   0  0
   -0.2885   -4.1699   -0.8958 C   0  0
    1.0827   -4.7904   -1.1710 C   0  0
    0.9629   -6.3157   -1.1638 C   0  0
    2.2794   -6.9115   -1.4281 N   0  0
    3.1912   -6.6683   -0.2810 C   0  0
    4.2619   -7.7772   -0.4379 C   0  0
    3.4363   -8.9875   -0.9312 C   0  0
    2.1601   -8.3812   -1.5437 C   0  0
   -4.9024   -2.6011    0.0227 C   0  0
   -5.9670   -1.8378    0.2328 N   0  0
   -5.8833   -0.5169    0.2252 C   0  0
   -4.7596    0.1255    0.0127 N   0  0
   -5.0044   -3.9776    0.0331 N   0  0
   -6.2593   -4.5852    0.1467 C   0  0
   -7.3723   -3.9975   -0.4410 C   0  0
   -8.6105   -4.5989   -0.3284 C   0  0
   -8.7435   -5.7871    0.3699 C   0  0
   -7.6350   -6.3755    0.9572 C   0  0
   -6.3931   -5.7795    0.8422 C   0  0
   -7.8048   -7.8653    1.8321 Cl  0  0
   -9.9558   -6.3732    0.4792 F   0  0
    0.9005    1.8061   -1.0638 H   0  0
   -0.7830    1.7934   -1.6418 H   0  0
   -0.4416    1.7747    0.1051 H   0  0
   -2.3623    1.1853   -0.4426 H   0  0
   -2.5118   -3.7757   -0.4461 H   0  0
   -0.6485   -4.5015    0.0781 H   0  0
   -0.9906   -4.4828   -1.6686 H   0  0
    1.4428   -4.4588   -2.1449 H   0  0
    1.7848   -4.4775   -0.3982 H   0  0
    0.6028   -6.6473   -0.1899 H   0  0
    0.2608   -6.6286   -1.9366 H   0  0
    3.6466   -5.6807   -0.3543 H   0  0
    2.6588   -6.7785    0.6637 H   0  0
    5.0077   -7.4910   -1.1794 H   0  0
    4.7332   -7.9965    0.5201 H   0  0
    3.9923   -9.5419   -1.6873 H   0  0
    3.1820   -9.6383   -0.0946 H   0  0
    1.2842   -8.7270   -0.9948 H   0  0
    2.0804   -8.6658   -2.5929 H   0  0
   -6.7805    0.0578    0.4018 H   0  0
   -4.2058   -4.5236   -0.0384 H   0  0
   -7.2695   -3.0705   -0.9855 H   0  0
   -9.4758   -4.1417   -0.7851 H   0  0
   -5.5283   -6.2402    1.2964 H   0  0
    2.6725   -6.5267   -2.2739 H   0  0
  1  2  1  0
  1 31  1  0
  1 32  1  0
  1 33  1  0
  2  3  1  0
  3  8  4  0
  3  4  4  0
  4  5  4  0
  4 34  1  0
  5 21  4  0
  5  6  4  0
  6  7  4  0
  6 18  4  0
  7  8  4  0
  7 35  1  0
  8  9  1  0
  9 10  1  0
 10 11  1  0
 10 36  1  0
 10 37  1  0
 11 12  1  0
 11 38  1  0
 11 39  1  0
 12 13  1  0
 12 40  1  0
 12 41  1  0
 13 17  1  0
 13 14  1  0
 13 55  1  0
 14 15  1  0
 14 42  1  0
 14 43  1  0
 15 16  1  0
 15 44  1  0
 15 45  1  0
 16 17  1  0
 16 46  1  0
 16 47  1  0
 17 48  1  0
 17 49  1  0
 18 19  4  0
 18 22  1  0
 19 20  4  0
 20 21  4  0
 20 50  1  0
 22 23  1  0
 22 51  1  0
 23 28  4  0
 23 24  4  0
 24 25  4  0
 24 52  1  0
 25 26  4  0
 25 53  1  0
 26 27  4  0
 26 30  1  0
 27 28  4  0
 27 29  1  0
 28 54  1  0
M  END
> <Name>
CHEMBL299672

$$$$
CHEMBL25579
  SciTegic01042610103D

 54 57  0  0  0  0            999 V2000
   -1.2326    2.5190   -1.4418 C   0  0
   -0.9448    1.1000   -1.2188 N   0  0
   -0.7342    0.6004    0.1422 C   0  0
   -2.0732    0.1589    0.7363 C   0  0
   -2.5774   -0.9560   -0.0019 O   0  0
   -3.7676   -1.4738    0.3991 C   0  0
   -4.4276   -0.9141    1.4708 C   0  0
   -5.6543   -1.4495    1.8816 C   0  0
   -6.1974   -2.5592    1.1877 C   0  0
   -5.5066   -3.1095    0.1016 C   0  0
   -4.3136   -2.5682   -0.2858 C   0  0
   -3.6460   -3.1000   -1.3444 O   0  0
   -4.2537   -4.2141   -2.0012 C   0  0
   -7.4391   -3.0781    1.6259 C   0  0
   -8.0303   -2.4992    2.6630 N   0  0
   -7.4848   -1.4635    3.2807 C   0  0
   -6.3373   -0.9407    2.9192 N   0  0
   -8.0198   -4.1573    0.9910 N   0  0
   -9.3082   -4.5702    1.3497 C   0  0
  -10.1506   -3.7047    2.0343 C   0  0
  -11.4219   -4.1142    2.3869 C   0  0
  -11.8571   -5.3863    2.0591 C   0  0
  -11.0209   -6.2524    1.3768 C   0  0
   -9.7491   -5.8462    1.0161 C   0  0
   -8.9345   -6.6896    0.3450 F   0  0
  -13.4552   -5.8969    2.5053 Cl  0  0
   -0.8714    0.2266   -2.2998 C   0  0
   -0.6042   -1.1288   -2.1077 C   0  0
   -0.5403   -1.9612   -3.2053 C   0  0
   -0.7281   -1.4899   -4.4238 N   0  0
   -0.9826   -0.2140   -4.6469 C   0  0
   -1.0688    0.6827   -3.6029 C   0  0
   -0.2978    3.0615   -1.5828 H   0  0
   -1.8539    2.6284   -2.3307 H   0  0
   -1.7603    2.9228   -0.5778 H   0  0
   -0.0508   -0.2484    0.1160 H   0  0
   -0.3069    1.3919    0.7578 H   0  0
   -1.9312   -0.1293    1.7779 H   0  0
   -2.7846    0.9829    0.6810 H   0  0
   -4.0017   -0.0687    1.9906 H   0  0
   -5.9167   -3.9554   -0.4301 H   0  0
   -4.3760   -5.0321   -1.2912 H   0  0
   -5.2294   -3.9199   -2.3881 H   0  0
   -3.6194   -4.5402   -2.8255 H   0  0
   -8.0078   -1.0294    4.1199 H   0  0
   -7.5350   -4.6296    0.2961 H   0  0
   -9.8121   -2.7118    2.2914 H   0  0
  -12.0771   -3.4408    2.9194 H   0  0
  -11.3630   -7.2447    1.1226 H   0  0
   -0.4493   -1.5209   -1.1134 H   0  0
   -0.3336   -3.0120   -3.0661 H   0  0
   -1.1297    0.1311   -5.6597 H   0  0
   -1.2823    1.7244   -3.7920 H   0  0
   -0.6773   -2.0987   -5.1773 H   0  0
  1  2  1  0
  1 33  1  0
  1 34  1  0
  1 35  1  0
  2  3  1  0
  2 27  1  0
  3  4  1  0
  3 36  1  0
  3 37  1  0
  4  5  1  0
  4 38  1  0
  4 39  1  0
  5  6  1  0
  6 11  4  0
  6  7  4  0
  7  8  4  0
  7 40  1  0
  8 17  4  0
  8  9  4  0
  9 10  4  0
  9 14  4  0
 10 11  4  0
 10 41  1  0
 11 12  1  0
 12 13  1  0
 13 42  1  0
 13 43  1  0
 13 44  1  0
 14 15  4  0
 14 18  1  0
 15 16  4  0
 16 17  4  0
 16 45  1  0
 18 19  1  0
 18 46  1  0
 19 24  4  0
 19 20  4  0
 20 21  4  0
 20 47  1  0
 21 22  4  0
 21 48  1  0
 22 23  4  0
 22 26  1  0
 23 24  4  0
 23 49  1  0
 24 25  1  0
 27 32  4  0
 27 28  4  0
 28 29  4  0
 28 50  1  0
 29 30  4  0
 29 51  1  0
 30 31  4  0
 30 54  1  0
 31 32  4  0
 31 52  1  0
 32 53  1  0
M  END
> <Name>
CHEMBL25579

$$$$
CHEMBL606403
  SciTegic01042610103D

 46 49  0  0  0  0            999 V2000
   -0.9884    2.1411    0.5932 C   0  0
   -0.6070    0.8325   -0.1020 C   0  0
    0.6312    0.2387    0.5727 C   0  0
   -1.7512   -0.1428    0.0005 C   0  0
   -2.3227   -0.6243   -1.0738 N   0  0
   -3.3207   -1.4754   -0.8755 C   0  0
   -3.4029   -1.5537    0.7999 S   0  0
   -2.1986   -0.5369    1.1689 N   0  0
   -4.1503   -2.1762   -1.8753 C   0  0
   -3.9511   -1.9998   -3.0617 O   0  0
   -5.1284   -3.0116   -1.4731 N   0  0
   -5.9783   -3.5985   -2.4160 C   0  0
   -5.4715   -3.9827   -3.6615 C   0  0
   -6.2759   -4.5563   -4.5983 C   0  0
   -7.6329   -4.7679   -4.3171 C   0  0
   -8.1529   -4.3811   -3.0575 C   0  0
   -7.3084   -3.7986   -2.1069 C   0  0
   -9.5275   -4.6082   -2.8026 C   0  0
  -10.2570   -5.1712   -3.7565 N   0  0
   -9.7269   -5.5160   -4.9191 C   0  0
   -8.4615   -5.3300   -5.2102 N   0  0
  -10.0924   -4.2536   -1.5944 N   0  0
  -11.4223   -4.5853   -1.3205 C   0  0
  -12.2013   -3.7459   -0.5337 C   0  0
  -13.5148   -4.0760   -0.2647 C   0  0
  -14.0558   -5.2409   -0.7775 C   0  0
  -13.2832   -6.0793   -1.5614 C   0  0
  -11.9695   -5.7516   -1.8390 C   0  0
  -14.0275   -7.6713   -2.2596 Br  0  0
   -0.1608    2.8465    0.5191 H   0  0
   -1.8705    2.5641    0.1125 H   0  0
   -1.2056    1.9448    1.6431 H   0  0
   -0.3897    1.0288   -1.1519 H   0  0
    0.4140    0.0425    1.6226 H   0  0
    0.9029   -0.6935    0.0775 H   0  0
    1.4589    0.9442    0.4986 H   0  0
   -5.2430   -3.2057   -0.5297 H   0  0
   -4.4269   -3.8217   -3.8836 H   0  0
   -5.8696   -4.8472   -5.5558 H   0  0
   -7.6942   -3.5046   -1.1420 H   0  0
  -10.3652   -5.9713   -5.6619 H   0  0
   -9.5665   -3.7742   -0.9352 H   0  0
  -11.7796   -2.8361   -0.1325 H   0  0
  -14.1204   -3.4239    0.3472 H   0  0
  -15.0833   -5.4969   -0.5652 H   0  0
  -11.3681   -6.4037   -2.4549 H   0  0
  1  2  1  0
  1 30  1  0
  1 31  1  0
  1 32  1  0
  2  3  1  0
  2  4  1  0
  2 33  1  0
  3 34  1  0
  3 35  1  0
  3 36  1  0
  4  8  2  0
  4  5  1  0
  5  6  2  0
  6  7  1  0
  6  9  1  0
  7  8  1  0
  9 10  2  0
  9 11  1  0
 11 12  1  0
 11 37  1  0
 12 17  4  0
 12 13  4  0
 13 14  4  0
 13 38  1  0
 14 15  4  0
 14 39  1  0
 15 21  4  0
 15 16  4  0
 16 17  4  0
 16 18  4  0
 17 40  1  0
 18 19  4  0
 18 22  1  0
 19 20  4  0
 20 21  4  0
 20 41  1  0
 22 23  1  0
 22 42  1  0
 23 28  4  0
 23 24  4  0
 24 25  4  0
 24 43  1  0
 25 26  4  0
 25 44  1  0
 26 27  4  0
 26 45  1  0
 27 28  4  0
 27 29  1  0
 28 46  1  0
M  END
> <Name>
CHEMBL606403

$$$$
CHEMBL508760
  SciTegic01042610103D

 65 70  0  0  0  0            999 V2000
    1.0744   -0.4608   -0.7578 C   0  0
    2.2604    0.2474   -0.7719 C   0  0
    2.3804    1.4148   -0.0336 C   0  0
    1.3085    1.8732    0.7205 C   0  0
    0.1218    1.1660    0.7355 C   0  0
    0.0017   -0.0036   -0.0041 C   0  0
   -1.2004   -0.7207    0.0101 N   0  0
   -1.1846   -2.1022   -0.1021 C   0  0
   -2.3642   -2.8196   -0.2052 C   0  0
   -2.3542   -4.2278   -0.3198 C   0  0
   -3.6139   -4.8350   -0.4169 C   0  0
   -4.7399   -4.0679   -0.3969 C   0  0
   -4.0894   -2.4132   -0.2372 S   0  0
   -6.1069   -4.4858   -0.4826 C   0  0
   -7.2276   -4.8283   -0.5529 C   0  0
   -8.6328   -5.2579   -0.6410 C   0  0  2  0  0  0
   -9.2963   -4.3943   -0.5956 H   0  0
   -8.9648   -6.2536    0.4982 C   0  0
   -8.4216   -7.5860   -0.0820 C   0  0  2  0  0  0
   -7.3486   -7.6720    0.0896 H   0  0
   -8.7245   -7.4578   -1.5897 C   0  0
   -8.8615   -6.0177   -1.8885 N   0  0
   -9.1127   -8.7020    0.4827 O   0  0
   -8.4246   -9.8537    0.5955 C   0  0
   -7.2689   -9.9098    0.2245 O   0  0
   -9.0178  -10.9445    1.1197 N   0  0
  -10.4181  -10.9026    1.5701 C   0  0
  -11.1636  -12.0856    0.9420 C   0  0
  -10.4455  -13.2918    1.2126 O   0  0
   -9.1339  -13.3319    0.6453 C   0  0
   -8.2861  -12.2143    1.2531 C   0  0
   -1.1259   -4.8065   -0.3202 N   0  0
   -0.0359   -4.0915   -0.2203 C   0  0
   -0.0325   -2.7738   -0.1190 N   0  0
    1.4597    3.3347    1.6451 Cl  0  0
    3.5487    2.1111   -0.0478 O   0  0
    4.6098    1.5815   -0.8450 C   0  0
    5.8150    2.4799   -0.7380 C   0  0
    5.8001    3.5992    0.0303 C   0  0
    7.4551    4.2100   -0.2460 S   0  0
    7.9776    2.9977   -1.2900 C   0  0
    6.9336    2.2121   -1.3817 N   0  0
    0.9801   -1.3677   -1.3366 H   0  0
    3.0948   -0.1087   -1.3580 H   0  0
   -0.7121    1.5223    1.3220 H   0  0
   -2.0444   -0.2509    0.0984 H   0  0
   -3.6918   -5.9083   -0.5078 H   0  0
   -8.4417   -5.9853    1.4161 H   0  0
  -10.0403   -6.3105    0.6659 H   0  0
   -7.9043   -7.8804   -2.1700 H   0  0
   -9.6542   -7.9752   -1.8264 H   0  0
   -9.7705   -5.8126   -2.2753 H   0  0
  -10.4567  -10.9795    2.6567 H   0  0
  -10.8784   -9.9674    1.2512 H   0  0
  -12.1640  -12.1538    1.3693 H   0  0
  -11.2364  -11.9393   -0.1357 H   0  0
   -8.6740  -14.2967    0.8592 H   0  0
   -9.1993  -13.1901   -0.4334 H   0  0
   -7.3353  -12.1473    0.7243 H   0  0
   -8.1064  -12.4255    2.3072 H   0  0
    0.9139   -4.6055   -0.2256 H   0  0
    4.8678    0.5837   -0.4901 H   0  0
    4.2896    1.5255   -1.8854 H   0  0
    5.0071    4.0069    0.6397 H   0  0
    8.9413    2.8911   -1.7657 H   0  0
  1  6  4  0
  1  2  4  0
  1 43  1  0
  2  3  4  0
  2 44  1  0
  3  4  4  0
  3 36  1  0
  4  5  4  0
  4 35  1  0
  5  6  4  0
  5 45  1  0
  6  7  1  0
  7  8  1  0
  7 46  1  0
  8 34  4  0
  8  9  4  0
  9 13  1  0
  9 10  4  0
 10 11  1  0
 10 32  4  0
 11 12  2  0
 11 47  1  0
 12 13  1  0
 12 14  1  0
 14 15  3  0
 15 16  1  0
 16 17  1  0
 16 22  1  0
 16 18  1  0
 18 19  1  0
 18 48  1  0
 18 49  1  0
 19 20  1  0
 19 21  1  0
 19 23  1  0
 21 22  1  0
 21 50  1  0
 21 51  1  0
 22 52  1  0
 23 24  1  0
 24 25  2  0
 24 26  1  0
 26 31  1  0
 26 27  1  0
 27 28  1  0
 27 53  1  0
 27 54  1  0
 28 29  1  0
 28 55  1  0
 28 56  1  0
 29 30  1  0
 30 31  1  0
 30 57  1  0
 30 58  1  0
 31 59  1  0
 31 60  1  0
 32 33  4  0
 33 34  4  0
 33 61  1  0
 36 37  1  0
 37 38  1  0
 37 62  1  0
 37 63  1  0
 38 42  1  0
 38 39  2  0
 39 40  1  0
 39 64  1  0
 40 41  1  0
 41 42  2  0
 41 65  1  0
M  END
> <Name>
CHEMBL508760

$$$$
CHEMBL178096
  SciTegic01042610103D

 71 74  0  0  0  0            999 V2000
   -9.5437   -3.4649   -2.8023 C   0  0
   -8.3197   -3.9823   -2.1762 N   0  0
   -8.4875   -4.0036   -0.7169 C   0  0
   -8.0612   -5.3453   -2.6593 C   0  0
   -6.7428   -5.8301   -2.1134 C   0  0
   -6.6842   -6.9709   -1.4319 C   0  0
   -5.3976   -7.4439   -0.8992 C   0  0
   -4.3871   -6.7920   -1.0818 O   0  0
   -5.3383   -8.5998   -0.2086 N   0  0
   -4.0990   -9.1129    0.1921 C   0  0
   -2.9608   -8.7748   -0.5052 C   0  0
   -1.7203   -9.2893   -0.1020 C   0  0
   -1.6428  -10.1524    1.0179 C   0  0
   -2.8164  -10.4829    1.7124 C   0  0
   -4.0238   -9.9638    1.3056 C   0  0
   -5.1557  -10.2826    1.9855 O   0  0
   -5.0138  -11.1531    3.1098 C   0  0
   -0.4584  -10.6467    1.4084 N   0  0
    0.6542  -10.3580    0.7832 C   0  0
    0.6710   -9.5105   -0.3362 C   0  0
   -0.5340   -8.9596   -0.7983 C   0  0
   -0.5608   -8.1228   -1.8954 N   0  0
   -0.2458   -8.6224   -3.1645 C   0  0
   -0.5755   -9.9300   -3.4976 C   0  0
   -0.2646  -10.4234   -4.7491 C   0  0
    0.3778   -9.6126   -5.6754 C   0  0
    0.7076   -8.3042   -5.3429 C   0  0
    0.3913   -7.8089   -4.0925 C   0  0
    1.5113   -7.2904   -6.5005 Cl  0  0
    0.6938  -10.1134   -6.9440 N   0  0
    0.3466  -11.4929   -7.2943 C   0  0
   -0.9411  -11.5100   -7.9927 N   0  0
   -0.9785  -11.4989   -9.3889 C   0  0
    0.2044  -11.4773  -10.1168 C   0  0
    0.1638  -11.4668  -11.4972 C   0  0
   -1.0526  -11.4773  -12.1549 C   0  0
   -2.2321  -11.4988  -11.4333 C   0  0
   -2.1986  -11.5151  -10.0528 C   0  0
    1.9046   -9.2120   -0.9994 C   0  0
    2.8831   -8.9751   -1.5256 N   0  0
   -9.7356   -2.4535   -2.4438 H   0  0
   -9.4193   -3.4491   -3.8850 H   0  0
  -10.3846   -4.1080   -2.5426 H   0  0
   -9.3283   -4.6468   -0.4572 H   0  0
   -7.5793   -4.3876   -0.2524 H   0  0
   -8.6794   -2.9923   -0.3585 H   0  0
   -8.8591   -6.0074   -2.3231 H   0  0
   -8.0249   -5.3439   -3.7487 H   0  0
   -5.8456   -5.2513   -2.2756 H   0  0
   -7.5814   -7.5497   -1.2697 H   0  0
   -6.1543   -9.0762    0.0107 H   0  0
   -3.0233   -8.1166   -1.3592 H   0  0
   -2.7713  -11.1404    2.5680 H   0  0
   -4.5913  -12.1031    2.7826 H   0  0
   -4.3510  -10.6941    3.8433 H   0  0
   -5.9908  -11.3261    3.5610 H   0  0
    1.5825  -10.7817    1.1371 H   0  0
   -0.7978   -7.1885   -1.7871 H   0  0
   -1.0749  -10.5610   -2.7773 H   0  0
   -0.5209  -11.4402   -5.0075 H   0  0
    0.6434   -6.7908   -3.8352 H   0  0
    1.1426   -9.5470   -7.5911 H   0  0
    1.1176  -11.9080   -7.9434 H   0  0
    0.2753  -12.0914   -6.3861 H   0  0
   -1.7677  -11.5292   -7.4855 H   0  0
    1.1548  -11.4684   -9.6038 H   0  0
    1.0832  -11.4501  -12.0638 H   0  0
   -1.0815  -11.4683  -13.2344 H   0  0
   -3.1804  -11.5069  -11.9500 H   0  0
   -3.1201  -11.5364   -9.4899 H   0  0
   -7.5414   -3.3870   -2.4166 H   0  0
  1  2  1  0
  1 41  1  0
  1 42  1  0
  1 43  1  0
  2  3  1  0
  2  4  1  0
  2 71  1  0
  3 44  1  0
  3 45  1  0
  3 46  1  0
  4  5  1  0
  4 47  1  0
  4 48  1  0
  5  6  2  0
  5 49  1  0
  6  7  1  0
  6 50  1  0
  7  8  2  0
  7  9  1  0
  9 10  1  0
  9 51  1  0
 10 15  4  0
 10 11  4  0
 11 12  4  0
 11 52  1  0
 12 21  4  0
 12 13  4  0
 13 14  4  0
 13 18  4  0
 14 15  4  0
 14 53  1  0
 15 16  1  0
 16 17  1  0
 17 54  1  0
 17 55  1  0
 17 56  1  0
 18 19  4  0
 19 20  4  0
 19 57  1  0
 20 21  4  0
 20 39  1  0
 21 22  1  0
 22 23  1  0
 22 58  1  0
 23 28  4  0
 23 24  4  0
 24 25  4  0
 24 59  1  0
 25 26  4  0
 25 60  1  0
 26 27  4  0
 26 30  1  0
 27 28  4  0
 27 29  1  0
 28 61  1  0
 30 31  1  0
 30 62  1  0
 31 32  1  0
 31 63  1  0
 31 64  1  0
 32 33  1  0
 32 65  1  0
 33 38  4  0
 33 34  4  0
 34 35  4  0
 34 66  1  0
 35 36  4  0
 35 67  1  0
 36 37  4  0
 36 68  1  0
 37 38  4  0
 37 69  1  0
 38 70  1  0
 39 40  3  0
M  END
> <Name>
CHEMBL178096

$$$$
CHEMBL92902
  SciTegic01042610103D

 49 52  0  0  0  0            999 V2000
    0.7987    0.8458   -1.0714 C   0  0
    0.3116   -0.3871   -0.4384 N   0  0  2  0  0  0
   -1.1009   -0.2219   -0.0611 C   0  0
   -1.6598   -1.5864    0.3504 C   0  0
   -0.7348   -2.2297    1.3468 C   0  0
    0.5050   -1.8138    1.5292 C   0  0
    1.0995   -0.6638    0.7684 C   0  0
    1.3401   -2.5068    2.5217 C   0  0
    0.8848   -3.4412    3.1534 O   0  0
    2.6098   -2.1064    2.7314 N   0  0
    3.3720   -2.6994    3.7434 C   0  0
    3.2258   -4.0640    4.0117 C   0  0
    3.9549   -4.6674    4.9905 C   0  0
    4.8675   -3.9159    5.7441 C   0  0
    5.0205   -2.5332    5.4775 C   0  0
    4.2656   -1.9336    4.4642 C   0  0
    5.9505   -1.8006    6.2552 C   0  0
    6.6299   -2.4472    7.1929 N   0  0
    6.4531   -3.7413    7.4060 C   0  0
    5.6067   -4.4694    6.7174 N   0  0
    6.1445   -0.4509    6.0426 N   0  0
    7.1436    0.2305    6.7436 C   0  0
    6.9628    1.5625    7.0946 C   0  0
    7.9516    2.2332    7.7871 C   0  0
    9.1212    1.5806    8.1314 C   0  0
    9.3049    0.2541    7.7835 C   0  0
    8.3167   -0.4243    7.0955 C   0  0
   10.9064   -0.6334    8.2562 Br  0  0
    1.8475    0.7251   -1.3428 H   0  0
    0.2127    1.0501   -1.9675 H   0  0
    0.6973    1.6770   -0.3736 H   0  0
   -1.1773    0.4722    0.7759 H   0  0
   -1.6641    0.1629   -0.9113 H   0  0
   -2.6437   -1.4550    0.8006 H   0  0
   -1.7456   -2.2239   -0.5296 H   0  0
   -1.0972   -3.0610    1.9332 H   0  0
    2.1219   -0.9108    0.4827 H   0  0
    1.1096    0.2221    1.4034 H   0  0
    2.9951   -1.4071    2.1806 H   0  0
    2.5240   -4.6476    3.4344 H   0  0
    3.8304   -5.7223    5.1860 H   0  0
    4.3783   -0.8810    4.2503 H   0  0
    7.0322   -4.2198    8.1820 H   0  0
    5.5876    0.0250    5.4068 H   0  0
    6.0499    2.0732    6.8259 H   0  0
    7.8114    3.2687    8.0598 H   0  0
    9.8931    2.1076    8.6726 H   0  0
    8.4584   -1.4610    6.8279 H   0  0
    0.4021   -1.1568   -1.0845 H   0  0
  1  2  1  0
  1 29  1  0
  1 30  1  0
  1 31  1  0
  2  7  1  0
  2  3  1  0
  2 49  1  0
  3  4  1  0
  3 32  1  0
  3 33  1  0
  4  5  1  0
  4 34  1  0
  4 35  1  0
  5  6  2  0
  5 36  1  0
  6  7  1  0
  6  8  1  0
  7 37  1  0
  7 38  1  0
  8  9  2  0
  8 10  1  0
 10 11  1  0
 10 39  1  0
 11 16  4  0
 11 12  4  0
 12 13  4  0
 12 40  1  0
 13 14  4  0
 13 41  1  0
 14 20  4  0
 14 15  4  0
 15 16  4  0
 15 17  4  0
 16 42  1  0
 17 18  4  0
 17 21  1  0
 18 19  4  0
 19 20  4  0
 19 43  1  0
 21 22  1  0
 21 44  1  0
 22 27  4  0
 22 23  4  0
 23 24  4  0
 23 45  1  0
 24 25  4  0
 24 46  1  0
 25 26  4  0
 25 47  1  0
 26 27  4  0
 26 28  1  0
 27 48  1  0
M  END
> <Name>
CHEMBL92902

$$$$
CHEMBL420059
  SciTegic01042610103D

 59 63  0  0  0  0            999 V2000
    0.3915    1.4192    0.3114 C   0  0
    0.3096   -0.0052    0.2304 O   0  0
    0.8340   -0.5911   -0.8774 C   0  0
    1.4144    0.1907   -1.8516 C   0  0
    1.9545   -0.4159   -2.9921 C   0  0
    1.8951   -1.8252   -3.1258 C   0  0
    1.2996   -2.5972   -2.1211 C   0  0
    0.7836   -1.9853   -1.0141 C   0  0
    0.2104   -2.7365   -0.0363 O   0  0
    0.1896   -4.1517   -0.2335 C   0  0
   -0.4896   -4.8233    0.9618 C   0  0
   -1.9008   -4.4188    1.0139 N   0  0
   -2.4653   -4.6470    2.3520 C   0  0
   -3.9157   -4.1578    2.3784 C   0  0
   -4.6582   -4.8278    1.3561 O   0  0
   -4.1365   -4.6266    0.0398 C   0  0
   -2.6882   -5.1205   -0.0103 C   0  0
    2.4498   -2.4095   -4.2893 C   0  0
    2.9964   -1.6083   -5.1942 N   0  0
    3.0290   -0.2957   -5.0264 C   0  0
    2.5313    0.3008   -3.9696 N   0  0
    2.4232   -3.7759   -4.4772 N   0  0
    3.0031   -4.3602   -5.6890 C   0  0  2  0  0  0
    2.2093   -5.4638   -6.3909 C   0  0
    3.4809   -5.8117   -5.6146 C   0  0  1  0  0  0
    4.7038   -6.1836   -6.4130 C   0  0
    4.7072   -6.0250   -7.7862 C   0  0
    5.8288   -6.3661   -8.5186 C   0  0
    6.9473   -6.8654   -7.8777 C   0  0
    6.9442   -7.0231   -6.5044 C   0  0
    5.8240   -6.6780   -5.7715 C   0  0
    1.4374    1.7250    0.2855 H   0  0
   -0.1375    1.8621   -0.5324 H   0  0
   -0.0629    1.7568    1.2428 H   0  0
    1.4524    1.2639   -1.7367 H   0  0
    1.2521   -3.6717   -2.2188 H   0  0
   -0.3638   -4.3837   -1.1434 H   0  0
    1.2111   -4.5207   -0.3254 H   0  0
   -0.4257   -5.9061    0.8547 H   0  0
    0.0098   -4.5190    1.8816 H   0  0
   -2.4361   -5.7120    2.5825 H   0  0
   -1.8824   -4.0978    3.0914 H   0  0
   -4.3561   -4.3770    3.3511 H   0  0
   -3.9405   -3.0827    2.2009 H   0  0
   -4.7365   -5.1848   -0.6788 H   0  0
   -4.1677   -3.5650   -0.2057 H   0  0
   -2.2681   -4.9170   -0.9952 H   0  0
   -2.6626   -6.1930    0.1825 H   0  0
    3.4863    0.3112   -5.7938 H   0  0
    2.0205   -4.3499   -3.8069 H   0  0
    3.5735   -3.6741   -6.3152 H   0  0
    1.2555   -5.7552   -5.9510 H   0  0
    2.2571   -5.5039   -7.4791 H   0  0
    3.3638   -6.3320   -4.6640 H   0  0
    3.8334   -5.6350   -8.2869 H   0  0
    5.8312   -6.2429   -9.5915 H   0  0
    7.8234   -7.1325   -8.4500 H   0  0
    7.8179   -7.4134   -6.0037 H   0  0
    5.8230   -6.7977   -4.6982 H   0  0
  1  2  1  0
  1 32  1  0
  1 33  1  0
  1 34  1  0
  2  3  1  0
  3  8  4  0
  3  4  4  0
  4  5  4  0
  4 35  1  0
  5 21  4  0
  5  6  4  0
  6  7  4  0
  6 18  4  0
  7  8  4  0
  7 36  1  0
  8  9  1  0
  9 10  1  0
 10 11  1  0
 10 37  1  0
 10 38  1  0
 11 12  1  0
 11 39  1  0
 11 40  1  0
 12 17  1  0
 12 13  1  0
 13 14  1  0
 13 41  1  0
 13 42  1  0
 14 15  1  0
 14 43  1  0
 14 44  1  0
 15 16  1  0
 16 17  1  0
 16 45  1  0
 16 46  1  0
 17 47  1  0
 17 48  1  0
 18 19  4  0
 18 22  1  0
 19 20  4  0
 20 21  4  0
 20 49  1  0
 22 23  1  0
 22 50  1  0
 23 25  1  0
 23 24  1  0
 23 51  1  0
 24 25  1  0
 24 52  1  0
 24 53  1  0
 25 26  1  0
 25 54  1  0
 26 31  4  0
 26 27  4  0
 27 28  4  0
 27 55  1  0
 28 29  4  0
 28 56  1  0
 29 30  4  0
 29 57  1  0
 30 31  4  0
 30 58  1  0
 31 59  1  0
M  END
> <Name>
CHEMBL420059

$$$$
CHEMBL137364
  SciTegic01042610103D

 51 54  0  0  0  0            999 V2000
    1.1493   -0.1473    2.9680 C   0  0
    2.3290    0.5218    2.7062 C   0  0
    2.3547    1.5372    1.7588 C   0  0
    1.1929    1.8767    1.0771 C   0  0
    0.0160    1.2036    1.3435 C   0  0
   -0.0056    0.1924    2.2883 C   0  0
   -1.5666    1.6648    0.4170 Br  0  0
    3.5469    2.2163    1.4921 N   0  0
    4.7505    1.5426    1.5405 C   0  0
    5.9772    2.2316    1.3746 C   0  0
    6.0289    3.6121    1.1563 C   0  0
    7.2549    4.2271    1.0024 C   0  0
    8.4372    3.4825    1.0632 C   0  0
    8.4079    2.1379    1.2749 C   0  0
    7.1784    1.4837    1.4351 C   0  0
    7.1028    0.1606    1.6461 N   0  0
    5.9382   -0.4245    1.7927 C   0  0
    4.7904    0.2336    1.7489 N   0  0
    7.3154    5.6069    0.7834 N   0  0
    8.5565    6.2375    0.6264 N   0  0
    8.6170    7.4724    0.5322 N   0  0
    7.3859    8.2613    0.4413 C   0  0
    7.2439    9.1309    1.6922 C   0  0
    6.0095    9.9219    1.6011 N   0  0
    6.0915   10.9026    0.5089 C   0  0
    4.7657   11.6620    0.4115 C   0  0
    4.4806   12.2768    1.6709 O   0  0
    4.3931   11.3505    2.7571 C   0  0
    5.7151   10.5879    2.8782 C   0  0
    1.1301   -0.9399    3.7014 H   0  0
    3.2306    0.2559    3.2380 H   0  0
    1.2095    2.6659    0.3401 H   0  0
   -0.9266   -0.3326    2.4947 H   0  0
    3.5284    3.1611    1.2732 H   0  0
    5.1185    4.1910    1.1083 H   0  0
    9.3872    3.9813    0.9401 H   0  0
    9.3295    1.5766    1.3189 H   0  0
    5.9147   -1.4911    1.9607 H   0  0
    6.4980    6.1274    0.7401 H   0  0
    7.4273    8.8990   -0.4417 H   0  0
    6.5297    7.5911    0.3657 H   0  0
    7.2025    8.4932    2.5752 H   0  0
    8.1002    9.8011    1.7678 H   0  0
    6.8996   11.6056    0.7109 H   0  0
    6.2846   10.3853   -0.4309 H   0  0
    4.8414   12.4291   -0.3591 H   0  0
    3.9659   10.9667    0.1566 H   0  0
    4.1993   11.8923    3.6828 H   0  0
    3.5824   10.6462    2.5703 H   0  0
    5.6334    9.8410    3.6679 H   0  0
    6.5172   11.2859    3.1181 H   0  0
  1  6  4  0
  1  2  4  0
  1 30  1  0
  2  3  4  0
  2 31  1  0
  3  4  4  0
  3  8  1  0
  4  5  4  0
  4 32  1  0
  5  6  4  0
  5  7  1  0
  6 33  1  0
  8  9  1  0
  8 34  1  0
  9 18  4  0
  9 10  4  0
 10 15  4  0
 10 11  4  0
 11 12  4  0
 11 35  1  0
 12 13  4  0
 12 19  1  0
 13 14  4  0
 13 36  1  0
 14 15  4  0
 14 37  1  0
 15 16  4  0
 16 17  4  0
 17 18  4  0
 17 38  1  0
 19 20  1  0
 19 39  1  0
 20 21  2  0
 21 22  1  0
 22 23  1  0
 22 40  1  0
 22 41  1  0
 23 24  1  0
 23 42  1  0
 23 43  1  0
 24 29  1  0
 24 25  1  0
 25 26  1  0
 25 44  1  0
 25 45  1  0
 26 27  1  0
 26 46  1  0
 26 47  1  0
 27 28  1  0
 28 29  1  0
 28 48  1  0
 28 49  1  0
 29 50  1  0
 29 51  1  0
M  END
> <Name>
CHEMBL137364

$$$$
CHEMBL53299
  SciTegic01042610103D

 46 49  0  0  0  0            999 V2000
    0.8770   -0.1565   -0.0157 C   0  0
    0.6783   -1.5691    0.0693 O   0  0
   -0.6063   -2.0125    0.0693 C   0  0
   -1.6539   -1.1071   -0.0166 C   0  0
   -2.9589   -1.5604   -0.0169 C   0  0
   -3.2214   -2.9152    0.0688 C   0  0
   -2.1790   -3.8196    0.1550 C   0  0
   -0.8722   -3.3718    0.1495 C   0  0
   -4.6459   -3.4069    0.0688 C   0  0
   -5.0752   -3.6597   -1.3089 N   0  0
   -6.3636   -4.1237   -1.5628 C   0  0
   -7.2287   -4.3358   -0.5026 C   0  0
   -8.5155   -4.8007   -0.7807 C   0  0
   -8.8807   -5.0351   -2.1314 C   0  0
   -7.9345   -4.7906   -3.1345 C   0  0
   -6.7385   -4.3484   -2.8174 N   0  0
  -10.1173   -5.4808   -2.3911 N   0  0
  -10.9725   -5.6963   -1.4225 C   0  0
  -10.7016   -5.4995   -0.1419 N   0  0
   -9.5127   -5.0597    0.2535 C   0  0
   -9.2311   -4.8553    1.5887 N   0  0
  -10.1620   -5.2246    2.5637 C   0  0
  -10.9814   -6.3283    2.3613 C   0  0
  -11.8999   -6.6911    3.3265 C   0  0
  -12.0051   -5.9573    4.4940 C   0  0
  -11.1909   -4.8576    4.6991 C   0  0
  -10.2659   -4.4925    3.7392 C   0  0
  -11.3391   -3.8573    6.2970 Br  0  0
    1.9449    0.0614   -0.0062 H   0  0
    0.4382    0.2171   -0.9409 H   0  0
    0.3994    0.3294    0.8351 H   0  0
   -1.4495   -0.0487   -0.0829 H   0  0
   -3.7748   -0.8559   -0.0838 H   0  0
   -2.3866   -4.8773    0.2223 H   0  0
   -0.0583   -4.0789    0.2124 H   0  0
   -4.7117   -4.3298    0.6450 H   0  0
   -5.2910   -2.6516    0.5176 H   0  0
   -4.4621   -3.5039   -2.0443 H   0  0
   -6.9159   -4.1467    0.5136 H   0  0
   -8.1893   -4.9621   -4.1699 H   0  0
  -11.9568   -6.0555   -1.6844 H   0  0
   -8.3872   -4.4554    1.8507 H   0  0
  -10.9003   -6.9017    1.4497 H   0  0
  -12.5372   -7.5487    3.1692 H   0  0
  -12.7246   -6.2431    5.2470 H   0  0
   -9.6274   -3.6367    3.9014 H   0  0
  1  2  1  0
  1 29  1  0
  1 30  1  0
  1 31  1  0
  2  3  1  0
  3  8  4  0
  3  4  4  0
  4  5  4  0
  4 32  1  0
  5  6  4  0
  5 33  1  0
  6  7  4  0
  6  9  1  0
  7  8  4  0
  7 34  1  0
  8 35  1  0
  9 10  1  0
  9 36  1  0
  9 37  1  0
 10 11  1  0
 10 38  1  0
 11 16  4  0
 11 12  4  0
 12 13  4  0
 12 39  1  0
 13 20  4  0
 13 14  4  0
 14 15  4  0
 14 17  4  0
 15 16  4  0
 15 40  1  0
 17 18  4  0
 18 19  4  0
 18 41  1  0
 19 20  4  0
 20 21  1  0
 21 22  1  0
 21 42  1  0
 22 27  4  0
 22 23  4  0
 23 24  4  0
 23 43  1  0
 24 25  4  0
 24 44  1  0
 25 26  4  0
 25 45  1  0
 26 27  4  0
 26 28  1  0
 27 46  1  0
M  END
> <Name>
CHEMBL53299

$$$$
CHEMBL93386
  SciTegic01042610103D

 50 53  0  0  0  0            999 V2000
    1.2351   -0.4718    1.6892 C   0  0
    2.4067    0.2329    1.4926 C   0  0
    2.3940    1.4048    0.7471 C   0  0
    1.2022    1.8646    0.2014 C   0  0
    0.0336    1.1551    0.4017 C   0  0
    0.0502   -0.0122    1.1451 C   0  0
   -1.5897    1.7795   -0.3405 Br  0  0
    3.5780    2.1203    0.5469 N   0  0
    4.7803    1.4504    0.4459 C   0  0
    6.0039    2.1598    0.3642 C   0  0
    6.0536    3.5574    0.3821 C   0  0
    7.2764    4.1919    0.2997 C   0  0
    8.4575    3.4501    0.1985 C   0  0
    8.4303    2.0890    0.1790 C   0  0
    7.2040    1.4147    0.2621 C   0  0
    7.1304    0.0749    0.2474 N   0  0
    5.9688   -0.5287    0.3261 C   0  0
    4.8223    0.1251    0.4282 N   0  0
    7.3348    5.5893    0.3169 N   0  0
    8.3765    6.2131    0.9020 C   0  0
    9.2201    5.5651    1.4918 O   0  0
    8.4900    7.6387    0.8294 C   0  0
    8.5830    8.8075    0.7699 C   0  0
    8.6997   10.2730    0.6952 C   0  0
    9.9112   10.7045    1.4053 N   0  0
    9.7982   10.4423    2.8474 C   0  0
   11.1018   10.8508    3.5385 C   0  0
   11.3733   12.2267    3.2580 O   0  0
   11.4903   12.5176    1.8627 C   0  0
   10.1906   12.1259    1.1546 C   0  0
    1.2455   -1.3855    2.2650 H   0  0
    3.3317   -0.1268    1.9184 H   0  0
    1.1890    2.7757   -0.3784 H   0  0
   -0.8643   -0.5653    1.3001 H   0  0
    3.5545    3.0876    0.4790 H   0  0
    5.1440    4.1345    0.4594 H   0  0
    9.4051    3.9644    0.1346 H   0  0
    9.3511    1.5301    0.0998 H   0  0
    5.9469   -1.6084    0.3114 H   0  0
    6.6256    6.1095   -0.0922 H   0  0
    8.7618   10.5798   -0.3488 H   0  0
    7.8252   10.7311    1.1572 H   0  0
    8.9712   11.0210    3.2589 H   0  0
    9.6169    9.3800    3.0111 H   0  0
   11.0022   10.7116    4.6150 H   0  0
   11.9201   10.2349    3.1654 H   0  0
   11.6716   13.5838    1.7271 H   0  0
   12.3198   11.9501    1.4409 H   0  0
   10.2957   12.2926    0.0825 H   0  0
    9.3699   12.7315    1.5390 H   0  0
  1  6  4  0
  1  2  4  0
  1 31  1  0
  2  3  4  0
  2 32  1  0
  3  4  4  0
  3  8  1  0
  4  5  4  0
  4 33  1  0
  5  6  4  0
  5  7  1  0
  6 34  1  0
  8  9  1  0
  8 35  1  0
  9 18  4  0
  9 10  4  0
 10 15  4  0
 10 11  4  0
 11 12  4  0
 11 36  1  0
 12 13  4  0
 12 19  1  0
 13 14  4  0
 13 37  1  0
 14 15  4  0
 14 38  1  0
 15 16  4  0
 16 17  4  0
 17 18  4  0
 17 39  1  0
 19 20  1  0
 19 40  1  0
 20 21  2  0
 20 22  1  0
 22 23  3  0
 23 24  1  0
 24 25  1  0
 24 41  1  0
 24 42  1  0
 25 30  1  0
 25 26  1  0
 26 27  1  0
 26 43  1  0
 26 44  1  0
 27 28  1  0
 27 45  1  0
 27 46  1  0
 28 29  1  0
 29 30  1  0
 29 47  1  0
 29 48  1  0
 30 49  1  0
 30 50  1  0
M  END
> <Name>
CHEMBL93386

$$$$
CHEMBL251700
  SciTegic01042610103D

 49 52  0  0  0  0            999 V2000
    0.0515    1.4024    0.6637 C   0  0
    1.1852    2.1155    0.4269 C   0  0
    2.3957    1.4476    0.1908 C   0  0
    2.4275    0.0307    0.2010 C   0  0
    1.2559   -0.6888    0.4455 C   0  0
    0.0725   -0.0017    0.6759 C   0  0
   -1.1349   -0.7290    0.9282 C   0  0
   -2.1248   -1.3253    1.1350 C   0  0
   -3.3660   -2.0730    1.3943 C   0  0
   -3.0865   -3.5147    1.3547 N   0  0
   -2.6709   -3.8939   -0.0009 C   0  0
   -2.3007   -5.3784   -0.0285 C   0  0
   -3.5181   -6.2102    0.3853 C   0  0
   -3.9884   -5.7549    1.7698 C   0  0
   -4.2960   -4.2565    1.7307 C   0  0
    3.6671   -0.6130   -0.0408 C   0  0
    4.7330    0.1442   -0.2640 N   0  0
    4.6543    1.4652   -0.2636 C   0  0
    3.5352    2.1144   -0.0462 N   0  0
    3.7623   -1.9887   -0.0434 N   0  0
    5.0133   -2.6031   -0.1637 C   0  0
    5.1394   -3.7911   -0.8723 C   0  0
    6.3753   -4.3961   -0.9906 C   0  0
    7.4887   -3.8198   -0.4030 C   0  0
    7.3658   -2.6350    0.3049 C   0  0
    6.1317   -2.0231    0.4203 C   0  0
    8.7633   -1.9154    1.0415 Cl  0  0
    8.6966   -4.4138   -0.5197 F   0  0
   -0.8763    1.9230    0.8493 H   0  0
    1.1533    3.1950    0.4203 H   0  0
    1.2706   -1.7687    0.4548 H   0  0
   -3.7531   -1.8048    2.3773 H   0  0
   -4.1053   -1.8252    0.6327 H   0  0
   -3.4903   -3.7113   -0.6962 H   0  0
   -1.8064   -3.2988   -0.2952 H   0  0
   -1.9941   -5.6584   -1.0363 H   0  0
   -1.4812   -5.5621    0.6663 H   0  0
   -4.3208   -6.0662   -0.3379 H   0  0
   -3.2438   -7.2645    0.4220 H   0  0
   -4.8881   -6.3041    2.0474 H   0  0
   -3.2039   -5.9465    2.5019 H   0  0
   -4.6313   -3.9291    2.7148 H   0  0
   -5.0808   -4.0661    0.9985 H   0  0
    5.5525    2.0350   -0.4505 H   0  0
    2.9618   -2.5304    0.0382 H   0  0
    4.2713   -4.2416   -1.3304 H   0  0
    6.4732   -5.3198   -1.5416 H   0  0
    6.0366   -1.0971    0.9680 H   0  0
   -2.3453   -3.7305    2.0044 H   0  0
  1  6  4  0
  1  2  4  0
  1 29  1  0
  2  3  4  0
  2 30  1  0
  3 19  4  0
  3  4  4  0
  4  5  4  0
  4 16  4  0
  5  6  4  0
  5 31  1  0
  6  7  1  0
  7  8  3  0
  8  9  1  0
  9 10  1  0
  9 32  1  0
  9 33  1  0
 10 15  1  0
 10 11  1  0
 10 49  1  0
 11 12  1  0
 11 34  1  0
 11 35  1  0
 12 13  1  0
 12 36  1  0
 12 37  1  0
 13 14  1  0
 13 38  1  0
 13 39  1  0
 14 15  1  0
 14 40  1  0
 14 41  1  0
 15 42  1  0
 15 43  1  0
 16 17  4  0
 16 20  1  0
 17 18  4  0
 18 19  4  0
 18 44  1  0
 20 21  1  0
 20 45  1  0
 21 26  4  0
 21 22  4  0
 22 23  4  0
 22 46  1  0
 23 24  4  0
 23 47  1  0
 24 25  4  0
 24 28  1  0
 25 26  4  0
 25 27  1  0
 26 48  1  0
M  END
> <Name>
CHEMBL251700

$$$$
CHEMBL179607
  SciTegic01042610103D

 75 79  0  0  0  0            999 V2000
    1.4986   -2.0927   -4.8239 C   0  0
    0.9410   -2.8215   -3.5996 C   0  0
    2.0054   -3.1084   -2.6903 O   0  0
    1.6781   -3.7578   -1.5430 C   0  0
    0.3688   -4.1101   -1.3100 C   0  0
    0.0244   -4.7811   -0.1268 C   0  0
    1.0361   -5.0874    0.8154 C   0  0
    2.3652   -4.7207    0.5602 C   0  0
    2.6801   -4.0675   -0.6104 C   0  0
    4.0073   -3.7056   -0.8696 N   0  0
    4.8479   -3.4497    0.1524 C   0  0
    4.4848   -3.6323    1.2988 O   0  0
    6.2041   -2.9496   -0.1186 C   0  0
    7.0337   -2.6971    0.8900 C   0  0
    6.6540   -2.7234   -1.5390 C   0  0
    7.1589   -3.9839   -2.0994 N   0  0
    8.3876   -4.4104   -1.4141 C   0  0
    8.8450   -5.7543   -1.9873 C   0  0
    9.0294   -5.6265   -3.3997 O   0  0
    7.8522   -5.2132   -4.0989 C   0  0
    7.3848   -3.8638   -3.5471 C   0  0
    0.6833   -5.7639    2.0064 C   0  0
   -0.6663   -6.0997    2.1935 C   0  0
   -1.6029   -5.7563    1.2053 C   0  0
   -1.2485   -5.1305    0.1122 N   0  0
   -1.0838   -6.7855    3.3792 C   0  0
   -1.4150   -7.3295    4.3199 N   0  0
    1.6352   -6.0837    2.9533 N   0  0
    2.1531   -7.3823    3.0139 C   0  0
    2.0100   -8.2388    1.9297 C   0  0
    2.5216   -9.5200    1.9898 C   0  0
    3.1780   -9.9526    3.1325 C   0  0
    3.3213   -9.0980    4.2168 C   0  0
    2.8153   -7.8134    4.1559 C   0  0
    4.1421   -9.6406    5.6471 Cl  0  0
    3.6811  -11.2148    3.1907 O   0  0
    3.4971  -12.0403    2.0388 C   0  0
    4.1155  -13.3922    2.2857 C   0  0
    5.4390  -13.6174    1.9565 C   0  0
    6.0063  -14.8575    2.1829 C   0  0
    5.2501  -15.8723    2.7390 C   0  0
    3.9267  -15.6468    3.0690 C   0  0
    3.3607  -14.4054    2.8465 C   0  0
    2.2377   -2.7239   -5.3171 H   0  0
    0.6868   -1.8738   -5.5175 H   0  0
    1.9687   -1.1609   -4.5091 H   0  0
    0.2019   -2.1902   -3.1064 H   0  0
    0.4710   -3.7532   -3.9144 H   0  0
   -0.3932   -3.8701   -2.0369 H   0  0
    3.1390   -4.9526    1.2770 H   0  0
    4.3220   -3.6390   -1.7847 H   0  0
    8.0296   -2.3299    0.6910 H   0  0
    6.7113   -2.8592    1.9079 H   0  0
    5.8118   -2.3722   -2.1352 H   0  0
    7.4468   -1.9756   -1.5542 H   0  0
    9.1676   -3.6647   -1.5678 H   0  0
    8.1909   -4.5177   -0.3473 H   0  0
    9.7865   -6.0468   -1.5223 H   0  0
    8.0881   -6.5123   -1.7861 H   0  0
    8.0757   -5.1143   -5.1612 H   0  0
    7.0664   -5.9555   -3.9592 H   0  0
    6.4560   -3.5721   -4.0374 H   0  0
    8.1488   -3.1094   -3.7349 H   0  0
   -2.6412   -6.0155    1.3509 H   0  0
    1.9453   -5.4083    3.5767 H   0  0
    1.4984   -7.9027    1.0400 H   0  0
    2.4102  -10.1857    1.1466 H   0  0
    2.9308   -7.1467    4.9976 H   0  0
    2.4314  -12.1585    1.8430 H   0  0
    3.9752  -11.5738    1.1774 H   0  0
    6.0298  -12.8245    1.5220 H   0  0
    7.0401  -15.0336    1.9251 H   0  0
    5.6930  -16.8413    2.9153 H   0  0
    3.3358  -16.4398    3.5032 H   0  0
    2.3279  -14.2282    3.1078 H   0  0
  1  2  1  0
  1 44  1  0
  1 45  1  0
  1 46  1  0
  2  3  1  0
  2 47  1  0
  2 48  1  0
  3  4  1  0
  4  9  4  0
  4  5  4  0
  5  6  4  0
  5 49  1  0
  6 25  4  0
  6  7  4  0
  7  8  4  0
  7 22  4  0
  8  9  4  0
  8 50  1  0
  9 10  1  0
 10 11  1  0
 10 51  1  0
 11 12  2  0
 11 13  1  0
 13 14  2  0
 13 15  1  0
 14 52  1  0
 14 53  1  0
 15 16  1  0
 15 54  1  0
 15 55  1  0
 16 21  1  0
 16 17  1  0
 17 18  1  0
 17 56  1  0
 17 57  1  0
 18 19  1  0
 18 58  1  0
 18 59  1  0
 19 20  1  0
 20 21  1  0
 20 60  1  0
 20 61  1  0
 21 62  1  0
 21 63  1  0
 22 23  4  0
 22 28  1  0
 23 24  4  0
 23 26  1  0
 24 25  4  0
 24 64  1  0
 26 27  3  0
 28 29  1  0
 28 65  1  0
 29 34  4  0
 29 30  4  0
 30 31  4  0
 30 66  1  0
 31 32  4  0
 31 67  1  0
 32 33  4  0
 32 36  1  0
 33 34  4  0
 33 35  1  0
 34 68  1  0
 36 37  1  0
 37 38  1  0
 37 69  1  0
 37 70  1  0
 38 43  4  0
 38 39  4  0
 39 40  4  0
 39 71  1  0
 40 41  4  0
 40 72  1  0
 41 42  4  0
 41 73  1  0
 42 43  4  0
 42 74  1  0
 43 75  1  0
M  END
> <Name>
CHEMBL179607

$$$$
CHEMBL179123
  SciTegic01042610103D

 77 80  0  0  0  0            999 V2000
    3.4777   -2.0803    3.6640 C   0  0
    2.7071   -2.8017    2.5565 C   0  0
    1.3942   -3.1222    3.0207 O   0  0
    0.5741   -3.7698    2.1527 C   0  0
    1.0302   -4.0888    0.8946 C   0  0
    0.1880   -4.7577   -0.0066 C   0  0
   -1.1269   -5.0964    0.3953 C   0  0
   -1.5738   -4.7634    1.6820 C   0  0
   -0.7275   -4.1115    2.5509 C   0  0
   -1.1700   -3.7832    3.8377 N   0  0
   -2.4793   -3.5561    4.0627 C   0  0
   -3.2894   -3.7365    3.1735 O   0  0
   -2.9285   -3.0902    5.3833 C   0  0
   -4.2207   -2.8661    5.6053 C   0  0
   -4.6810   -2.3887    6.9585 C   0  0
   -5.4527   -1.1483    6.8037 N   0  0
   -6.0020   -0.7476    8.1059 C   0  0
   -4.5751   -0.0859    6.2947 C   0  0
   -1.9717   -5.7707   -0.5171 C   0  0
   -1.4560   -6.0718   -1.7870 C   0  0
   -0.1393   -5.6978   -2.1000 C   0  0
    0.6206   -5.0748   -1.2360 N   0  0
   -2.2638   -6.7536   -2.7530 C   0  0
   -2.9046   -7.2945   -3.5194 N   0  0
   -3.2606   -6.1213   -0.1697 N   0  0
   -3.5474   -7.4341    0.2206 C   0  0
   -2.5209   -8.2803    0.6202 C   0  0
   -2.8044   -9.5756    1.0057 C   0  0
   -4.1139  -10.0326    0.9939 C   0  0
   -5.1407   -9.1883    0.5944 C   0  0
   -4.8592   -7.8899    0.2142 C   0  0
   -6.7793   -9.7615    0.5788 Cl  0  0
   -4.3919  -11.3087    1.3734 O   0  0
   -3.2869  -12.1224    1.7720 C   0  0
   -3.7918  -13.5133    2.1610 C   0  0
   -4.6822  -13.4044    3.4004 C   0  0
   -5.1871  -14.7953    3.7894 C   0  0
   -3.9946  -15.7034    4.0963 C   0  0
   -3.1043  -15.8123    2.8568 C   0  0
   -2.5993  -14.4214    2.4678 C   0  0
    4.4792   -1.8359    3.3099 H   0  0
    2.9537   -1.1633    3.9333 H   0  0
    3.5493   -2.7279    4.5379 H   0  0
    2.6355   -2.1542    1.6826 H   0  0
    3.2312   -3.7188    2.2872 H   0  0
    2.0353   -3.8243    0.6007 H   0  0
   -2.5763   -5.0200    1.9913 H   0  0
   -0.5342   -3.7192    4.5676 H   0  0
   -2.2092   -2.9301    6.1728 H   0  0
   -4.9400   -3.0263    4.8158 H   0  0
   -5.3085   -3.1519    7.4190 H   0  0
   -3.8140   -2.2006    7.5917 H   0  0
   -5.1859   -0.5824    8.8093 H   0  0
   -6.5746    0.1727    7.9910 H   0  0
   -6.6532   -1.5359    8.4836 H   0  0
   -4.1674   -0.3832    5.3285 H   0  0
   -5.1476    0.8344    6.1798 H   0  0
   -3.7589    0.0793    6.9980 H   0  0
    0.2559   -5.9303   -3.0778 H   0  0
   -3.9676   -5.4577   -0.1960 H   0  0
   -1.5010   -7.9252    0.6290 H   0  0
   -2.0060  -10.2333    1.3163 H   0  0
   -5.6585   -7.2313   -0.0921 H   0  0
   -2.5828  -12.2097    0.9444 H   0  0
   -2.7883  -11.6647    2.6264 H   0  0
   -4.3668  -13.9348    1.3365 H   0  0
   -4.1072  -12.9829    4.2249 H   0  0
   -5.5317  -12.7574    3.1818 H   0  0
   -5.8214  -14.7177    4.6725 H   0  0
   -5.7621  -15.2168    2.9649 H   0  0
   -3.4196  -15.2819    4.9208 H   0  0
   -4.3544  -16.6943    4.3734 H   0  0
   -2.2547  -16.4592    3.0754 H   0  0
   -3.6793  -16.2338    2.0323 H   0  0
   -1.9650  -14.4989    1.5848 H   0  0
   -2.0243  -13.9999    3.2923 H   0  0
   -6.2082   -1.3012    6.1526 H   0  0
  1  2  1  0
  1 41  1  0
  1 42  1  0
  1 43  1  0
  2  3  1  0
  2 44  1  0
  2 45  1  0
  3  4  1  0
  4  9  4  0
  4  5  4  0
  5  6  4  0
  5 46  1  0
  6 22  4  0
  6  7  4  0
  7  8  4  0
  7 19  4  0
  8  9  4  0
  8 47  1  0
  9 10  1  0
 10 11  1  0
 10 48  1  0
 11 12  2  0
 11 13  1  0
 13 14  2  0
 13 49  1  0
 14 15  1  0
 14 50  1  0
 15 16  1  0
 15 51  1  0
 15 52  1  0
 16 17  1  0
 16 18  1  0
 16 77  1  0
 17 53  1  0
 17 54  1  0
 17 55  1  0
 18 56  1  0
 18 57  1  0
 18 58  1  0
 19 20  4  0
 19 25  1  0
 20 21  4  0
 20 23  1  0
 21 22  4  0
 21 59  1  0
 23 24  3  0
 25 26  1  0
 25 60  1  0
 26 31  4  0
 26 27  4  0
 27 28  4  0
 27 61  1  0
 28 29  4  0
 28 62  1  0
 29 30  4  0
 29 33  1  0
 30 31  4  0
 30 32  1  0
 31 63  1  0
 33 34  1  0
 34 35  1  0
 34 64  1  0
 34 65  1  0
 35 40  1  0
 35 36  1  0
 35 66  1  0
 36 37  1  0
 36 67  1  0
 36 68  1  0
 37 38  1  0
 37 69  1  0
 37 70  1  0
 38 39  1  0
 38 71  1  0
 38 72  1  0
 39 40  1  0
 39 73  1  0
 39 74  1  0
 40 75  1  0
 40 76  1  0
M  END
> <Name>
CHEMBL179123

$$$$
CHEMBL258270
  SciTegic01042610103D

 64 68  0  0  0  0            999 V2000
   -1.9659    0.4680   -3.4132 C   0  0
   -1.4466    0.4049   -1.9999 C   0  0
   -0.7430    1.2953   -1.5721 O   0  0
   -1.7641   -0.6410   -1.2114 N   0  0
   -2.6109   -1.7343   -1.7122 C   0  0
   -3.7499   -1.9646   -0.7133 C   0  0
   -3.1862   -2.1792    0.6262 N   0  0
   -2.4647   -0.9896    1.0975 C   0  0
   -1.2680   -0.7223    0.1708 C   0  0
   -4.2314   -2.5733    1.5803 C   0  0
   -4.6176   -4.0340    1.3391 C   0  0
   -3.5032   -4.8770    1.6383 O   0  0
   -3.6801   -6.2145    1.4754 C   0  0
   -2.6868   -7.2527    1.7259 C   0  0
   -3.3087   -8.4806    1.4237 C   0  0
   -4.5776   -8.1904    1.0235 N   0  0
   -5.2429   -8.8419    0.7518 H   0  0
   -4.7731   -6.8059    1.0711 N   0  0
   -2.6080   -9.6047    1.5705 N   0  0
   -1.3618   -9.5689    1.9888 C   0  0
   -0.7394   -8.4414    2.2833 N   0  0
   -1.3534   -7.2674    2.1693 C   0  0
   -0.6970   -6.0917    2.4792 N   0  0
    0.6621   -6.1162    2.8146 C   0  0
    1.1717   -5.1916    3.7171 C   0  0
    2.5123   -5.2160    4.0477 C   0  0
    3.3504   -6.1634    3.4790 C   0  0
    2.8424   -7.0880    2.5770 C   0  0
    1.4999   -7.0684    2.2496 C   0  0
    3.8921   -8.2737    1.8655 Cl  0  0
    4.6706   -6.1863    3.8049 O   0  0
    5.1252   -5.2053    4.7393 C   0  0
    6.6026   -5.3842    4.9766 C   0  0
    7.2845   -6.3872    4.3134 C   0  0
    8.6434   -6.5433    4.5387 C   0  0
    9.2685   -5.6809    5.4267 C   0  0
    8.5215   -4.7015    6.0530 C   0  0
    7.2310   -4.5788    5.8103 N   0  0
   -1.6071    1.3792   -3.8918 H   0  0
   -1.6104   -0.3990   -3.9700 H   0  0
   -3.0558    0.4694   -3.4001 H   0  0
   -3.0248   -1.4616   -2.6830 H   0  0
   -2.0172   -2.6436   -1.8065 H   0  0
   -4.4022   -1.0915   -0.6978 H   0  0
   -4.3233   -2.8423   -1.0114 H   0  0
   -3.1349   -0.1300    1.0878 H   0  0
   -2.1060   -1.1601    2.1126 H   0  0
   -0.5477   -1.5361    0.2540 H   0  0
   -0.7936    0.2198    0.4456 H   0  0
   -3.8564   -2.4598    2.5974 H   0  0
   -5.1068   -1.9386    1.4428 H   0  0
   -5.4567   -4.2989    1.9823 H   0  0
   -4.9037   -4.1666    0.2957 H   0  0
   -0.8249  -10.4998    2.0963 H   0  0
   -1.1778   -5.2494    2.4644 H   0  0
    0.5196   -4.4534    4.1600 H   0  0
    2.9083   -4.4966    4.7492 H   0  0
    1.1034   -7.7905    1.5512 H   0  0
    4.9396   -4.2086    4.3389 H   0  0
    4.5890   -5.3243    5.6808 H   0  0
    6.7651   -7.0411    3.6286 H   0  0
    9.2019   -7.3183    4.0349 H   0  0
   10.3258   -5.7737    5.6265 H   0  0
    9.0009   -4.0259    6.7459 H   0  0
  1  2  1  0
  1 39  1  0
  1 40  1  0
  1 41  1  0
  2  3  2  0
  2  4  1  0
  4  9  1  0
  4  5  1  0
  5  6  1  0
  5 42  1  0
  5 43  1  0
  6  7  1  0
  6 44  1  0
  6 45  1  0
  7  8  1  0
  7 10  1  0
  8  9  1  0
  8 46  1  0
  8 47  1  0
  9 48  1  0
  9 49  1  0
 10 11  1  0
 10 50  1  0
 10 51  1  0
 11 12  1  0
 11 52  1  0
 11 53  1  0
 12 13  1  0
 13 18  2  0
 13 14  1  0
 14 22  4  0
 14 15  4  0
 15 16  1  0
 15 19  4  0
 16 17  1  0
 16 18  1  0
 19 20  4  0
 20 21  4  0
 20 54  1  0
 21 22  4  0
 22 23  1  0
 23 24  1  0
 23 55  1  0
 24 29  4  0
 24 25  4  0
 25 26  4  0
 25 56  1  0
 26 27  4  0
 26 57  1  0
 27 28  4  0
 27 31  1  0
 28 29  4  0
 28 30  1  0
 29 58  1  0
 31 32  1  0
 32 33  1  0
 32 59  1  0
 32 60  1  0
 33 38  4  0
 33 34  4  0
 34 35  4  0
 34 61  1  0
 35 36  4  0
 35 62  1  0
 36 37  4  0
 36 63  1  0
 37 38  4  0
 37 64  1  0
M  END
> <Name>
CHEMBL258270

$$$$
CHEMBL93537
  SciTegic01042610103D

 52 55  0  0  0  0            999 V2000
    1.2349   -0.4716    1.6895 C   0  0
    2.4065    0.2331    1.4928 C   0  0
    2.3939    1.4051    0.7474 C   0  0
    1.2021    1.8649    0.2017 C   0  0
    0.0335    1.1555    0.4021 C   0  0
    0.0500   -0.0118    1.1455 C   0  0
   -1.5899    1.7800   -0.3399 Br  0  0
    3.5779    2.1205    0.5471 N   0  0
    4.7802    1.4505    0.4460 C   0  0
    6.0038    2.1599    0.3642 C   0  0
    6.0536    3.5575    0.3822 C   0  0
    7.2764    4.1919    0.2996 C   0  0
    8.4575    3.4501    0.1989 C   0  0
    8.4302    2.0889    0.1794 C   0  0
    7.2039    1.4147    0.2621 C   0  0
    7.1302    0.0749    0.2473 N   0  0
    5.9685   -0.5287    0.3261 C   0  0
    4.8221    0.1253    0.4283 N   0  0
    7.3349    5.5893    0.3165 N   0  0
    8.3764    6.2132    0.9016 C   0  0
    9.2199    5.5654    1.4916 O   0  0
    8.4931    7.6773    0.8265 C   0  0
    9.5210    8.2931    1.4039 C   0  0
    9.6405    9.7934    1.3270 C   0  0
    9.7548   10.3457    2.6835 N   0  0
    8.5393   10.0883    3.4591 C   0  0
    8.8344   10.2451    4.9553 C   0  0
    9.3672   11.9587    5.2574 S   0  0
   10.6642   12.2022    4.0043 C   0  0
   10.1082   11.7665    2.6436 C   0  0
    1.2453   -1.3852    2.2653 H   0  0
    3.3316   -0.1266    1.9185 H   0  0
    1.1888    2.7760   -0.3780 H   0  0
   -0.8645   -0.5650    1.3005 H   0  0
    3.5545    3.0878    0.4792 H   0  0
    5.1440    4.1346    0.4595 H   0  0
    9.4051    3.9643    0.1353 H   0  0
    9.3510    1.5300    0.1005 H   0  0
    5.9466   -1.6083    0.3114 H   0  0
    6.6258    6.1094   -0.0930 H   0  0
    7.7441    8.2525    0.3025 H   0  0
   10.2700    7.7179    1.9279 H   0  0
   10.5272   10.0582    0.7511 H   0  0
    8.7555   10.2039    0.8409 H   0  0
    7.7655   10.7980    3.1661 H   0  0
    8.1921    9.0739    3.2626 H   0  0
    7.9336   10.0335    5.5315 H   0  0
    9.6278    9.5570    5.2472 H   0  0
   10.9451   13.2547    3.9663 H   0  0
   11.5357   11.5978    4.2556 H   0  0
   10.8629   11.9307    1.8745 H   0  0
    9.2204   12.3542    2.4099 H   0  0
  1  6  4  0
  1  2  4  0
  1 31  1  0
  2  3  4  0
  2 32  1  0
  3  4  4  0
  3  8  1  0
  4  5  4  0
  4 33  1  0
  5  6  4  0
  5  7  1  0
  6 34  1  0
  8  9  1  0
  8 35  1  0
  9 18  4  0
  9 10  4  0
 10 15  4  0
 10 11  4  0
 11 12  4  0
 11 36  1  0
 12 13  4  0
 12 19  1  0
 13 14  4  0
 13 37  1  0
 14 15  4  0
 14 38  1  0
 15 16  4  0
 16 17  4  0
 17 18  4  0
 17 39  1  0
 19 20  1  0
 19 40  1  0
 20 21  2  0
 20 22  1  0
 22 23  2  0
 22 41  1  0
 23 24  1  0
 23 42  1  0
 24 25  1  0
 24 43  1  0
 24 44  1  0
 25 30  1  0
 25 26  1  0
 26 27  1  0
 26 45  1  0
 26 46  1  0
 27 28  1  0
 27 47  1  0
 27 48  1  0
 28 29  1  0
 29 30  1  0
 29 49  1  0
 29 50  1  0
 30 51  1  0
 30 52  1  0
M  END
> <Name>
CHEMBL93537

$$$$
CHEMBL179363
  SciTegic01042610103D

 71 74  0  0  0  0            999 V2000
   -4.8739   -2.1797    1.1390 C   0  0
   -3.5184   -2.8777    1.0111 C   0  0
   -3.2593   -3.1667   -0.3642 O   0  0
   -2.0878   -3.7905   -0.6532 C   0  0
   -1.2211   -4.1164    0.3643 C   0  0
   -0.0094   -4.7608    0.0722 C   0  0
    0.3049   -5.0678   -1.2739 C   0  0
   -0.5912   -4.7281   -2.2975 C   0  0
   -1.7768   -4.1008   -1.9861 C   0  0
   -2.6753   -3.7660   -3.0060 N   0  0
   -2.2193   -3.5069   -4.2476 C   0  0
   -1.0416   -3.6638   -4.5080 O   0  0
   -3.1458   -3.0345   -5.2874 C   0  0
   -2.6958   -2.7788   -6.5128 C   0  0
   -3.6452   -2.2947   -7.5783 C   0  0
   -3.1448   -1.0348   -8.1442 N   0  0
   -4.0043   -0.6250   -9.2629 C   0  0
   -3.1591    0.0070   -7.1086 C   0  0
    1.5278   -5.7175   -1.5627 C   0  0
    2.3746   -6.0270   -0.4874 C   0  0
    1.9819   -5.6850    0.8167 C   0  0
    0.8441   -5.0844    1.0552 N   0  0
    3.6255   -6.6849   -0.7174 C   0  0
    4.6179   -7.2069   -0.8999 N   0  0
    1.8765   -6.0368   -2.8593 N   0  0
    1.7023   -7.3434   -3.3291 C   0  0
    0.8564   -8.2165   -2.6569 C   0  0
    0.6844   -9.5056   -3.1211 C   0  0
    1.3561   -9.9295   -4.2580 C   0  0
    2.2021   -9.0584   -4.9305 C   0  0
    2.3704   -7.7661   -4.4707 C   0  0
    3.0433   -9.5902   -6.3529 Cl  0  0
    1.1863  -11.1996   -4.7140 O   0  0
    0.3015  -12.0421   -3.9728 C   0  0
    0.2396  -13.4005   -4.6224 C   0  0
   -0.7018  -13.6558   -5.6023 C   0  0
   -0.7592  -14.9014   -6.1986 C   0  0
    0.1244  -15.8930   -5.8150 C   0  0
    1.0664  -15.6382   -4.8346 C   0  0
    1.1274  -14.3890   -4.2424 C   0  0
    2.1763  -16.8829   -4.3525 Cl  0  0
   -4.8595   -1.2508    0.5689 H   0  0
   -5.6564   -2.8319    0.7511 H   0  0
   -5.0715   -1.9593    2.1880 H   0  0
   -2.7359   -2.2255    1.3989 H   0  0
   -3.5328   -3.8066    1.5811 H   0  0
   -1.4730   -3.8762    1.3867 H   0  0
   -0.3541   -4.9606   -3.3252 H   0  0
   -3.6260   -3.7205   -2.8192 H   0  0
   -4.1915   -2.8952   -5.0562 H   0  0
   -1.6501   -2.9181   -6.7440 H   0  0
   -3.7185   -3.0435   -8.3670 H   0  0
   -4.6298   -2.1306   -7.1404 H   0  0
   -5.0238   -0.4828   -8.9046 H   0  0
   -3.6330    0.3098   -9.6828 H   0  0
   -3.9937   -1.3980  -10.0313 H   0  0
   -2.7878    0.9418   -7.5286 H   0  0
   -4.1786    0.1492   -6.7503 H   0  0
   -2.5214   -0.2971   -6.2786 H   0  0
    2.6348   -5.9240    1.6431 H   0  0
    2.2423   -5.3556   -3.4450 H   0  0
    0.3336   -7.8872   -1.7711 H   0  0
    0.0266  -10.1842   -2.5982 H   0  0
    3.0249   -7.0865   -4.9964 H   0  0
    0.6678  -12.1442   -2.9512 H   0  0
   -0.6947  -11.6001   -3.9591 H   0  0
   -1.3927  -12.8816   -5.9018 H   0  0
   -1.4947  -15.1002   -6.9640 H   0  0
    0.0789  -16.8665   -6.2805 H   0  0
    1.8655  -14.1882   -3.4801 H   0  0
   -2.2010   -1.1664   -8.4759 H   0  0
  1  2  1  0
  1 42  1  0
  1 43  1  0
  1 44  1  0
  2  3  1  0
  2 45  1  0
  2 46  1  0
  3  4  1  0
  4  9  4  0
  4  5  4  0
  5  6  4  0
  5 47  1  0
  6 22  4  0
  6  7  4  0
  7  8  4  0
  7 19  4  0
  8  9  4  0
  8 48  1  0
  9 10  1  0
 10 11  1  0
 10 49  1  0
 11 12  2  0
 11 13  1  0
 13 14  2  0
 13 50  1  0
 14 15  1  0
 14 51  1  0
 15 16  1  0
 15 52  1  0
 15 53  1  0
 16 17  1  0
 16 18  1  0
 16 71  1  0
 17 54  1  0
 17 55  1  0
 17 56  1  0
 18 57  1  0
 18 58  1  0
 18 59  1  0
 19 20  4  0
 19 25  1  0
 20 21  4  0
 20 23  1  0
 21 22  4  0
 21 60  1  0
 23 24  3  0
 25 26  1  0
 25 61  1  0
 26 31  4  0
 26 27  4  0
 27 28  4  0
 27 62  1  0
 28 29  4  0
 28 63  1  0
 29 30  4  0
 29 33  1  0
 30 31  4  0
 30 32  1  0
 31 64  1  0
 33 34  1  0
 34 35  1  0
 34 65  1  0
 34 66  1  0
 35 40  4  0
 35 36  4  0
 36 37  4  0
 36 67  1  0
 37 38  4  0
 37 68  1  0
 38 39  4  0
 38 69  1  0
 39 40  4  0
 39 41  1  0
 40 70  1  0
M  END
> <Name>
CHEMBL179363

$$$$
CHEMBL94123
  SciTegic01042610103D

 49 52  0  0  0  0            999 V2000
    1.1592   -0.4044    1.6510 C   0  0
    2.3403    0.2877    1.4666 C   0  0
    2.3496    1.4547    0.7134 C   0  0
    1.1702    1.9223    0.1477 C   0  0
   -0.0079    1.2255    0.3359 C   0  0
   -0.0133    0.0630    1.0870 C   0  0
   -1.6144    1.8606   -0.4334 Br  0  0
    3.5432    2.1573    0.5255 N   0  0
    4.7416    1.4761    0.4571 C   0  0
    5.9725    2.1741    0.3880 C   0  0
    6.0337    3.5714    0.3861 C   0  0
    7.2631    4.1945    0.3174 C   0  0
    8.4395    3.4417    0.2495 C   0  0
    8.4011    2.0806    0.2497 C   0  0
    7.1678    1.4178    0.3196 C   0  0
    7.0832    0.0785    0.3233 N   0  0
    5.9151   -0.5143    0.3890 C   0  0
    4.7725    0.1504    0.4598 N   0  0
    7.3330    5.5917    0.3151 N   0  0
    8.3684    6.2156    0.9111 C   0  0
    9.1953    5.5688    1.5286 O   0  0
    8.4947    7.6210    0.8194 C   0  0
    9.5311    8.2455    1.4160 C   0  0
    9.5868    9.6111    1.4354 N   0  0
    8.4688   10.4221    0.9277 C   0  0
    8.1050   11.4640    1.9916 C   0  0
    9.2835   12.1767    2.3748 O   0  0
   10.2905   11.3609    2.9785 C   0  0
   10.7639   10.3138    1.9702 C   0  0
    1.1525   -1.3143    2.2328 H   0  0
    3.2556   -0.0781    1.9079 H   0  0
    1.1741    2.8296   -0.4381 H   0  0
   -0.9353   -0.4802    1.2326 H   0  0
    3.5293    3.1237    0.4431 H   0  0
    5.1277    4.1570    0.4377 H   0  0
    9.3924    3.9471    0.1959 H   0  0
    9.3184    1.5131    0.1961 H   0  0
    5.8843   -1.5939    0.3899 H   0  0
    6.6364    6.1115   -0.1155 H   0  0
    7.7615    8.1945    0.2718 H   0  0
   10.3168    7.6664    1.8783 H   0  0
    8.7681   10.9253    0.0083 H   0  0
    7.6091    9.7809    0.7326 H   0  0
    7.3742   12.1619    1.5829 H   0  0
    7.6832   10.9627    2.8628 H   0  0
   11.1321   11.9847    3.2797 H   0  0
    9.8767   10.8593    3.8532 H   0  0
   11.4234    9.6010    2.4653 H   0  0
   11.2982   10.8059    1.1576 H   0  0
  1  6  4  0
  1  2  4  0
  1 30  1  0
  2  3  4  0
  2 31  1  0
  3  4  4  0
  3  8  1  0
  4  5  4  0
  4 32  1  0
  5  6  4  0
  5  7  1  0
  6 33  1  0
  8  9  1  0
  8 34  1  0
  9 18  4  0
  9 10  4  0
 10 15  4  0
 10 11  4  0
 11 12  4  0
 11 35  1  0
 12 13  4  0
 12 19  1  0
 13 14  4  0
 13 36  1  0
 14 15  4  0
 14 37  1  0
 15 16  4  0
 16 17  4  0
 17 18  4  0
 17 38  1  0
 19 20  1  0
 19 39  1  0
 20 21  2  0
 20 22  1  0
 22 23  2  0
 22 40  1  0
 23 24  1  0
 23 41  1  0
 24 29  1  0
 24 25  1  0
 25 26  1  0
 25 42  1  0
 25 43  1  0
 26 27  1  0
 26 44  1  0
 26 45  1  0
 27 28  1  0
 28 29  1  0
 28 46  1  0
 28 47  1  0
 29 48  1  0
 29 49  1  0
M  END
> <Name>
CHEMBL94123

$$$$
CHEMBL569880
  SciTegic01042610103D

 61 64  0  0  0  0            999 V2000
   -0.4584    1.7260    0.2168 C   0  0
   -0.3859    0.2989    0.1993 O   0  0
    0.3274   -0.2331   -0.9188 C   0  0
    0.3416   -1.7607   -0.8347 C   0  0
   -0.9918   -2.2574   -0.9659 O   0  0
   -1.1561   -3.6047   -0.9127 C   0  0
   -0.0597   -4.4180   -0.7331 C   0  0
   -0.2282   -5.8067   -0.6776 C   0  0
   -1.5267   -6.3593   -0.8071 C   0  0
   -2.6293   -5.5167   -0.9891 C   0  0
   -2.4420   -4.1527   -1.0355 C   0  0
   -3.5439   -3.3060   -1.2122 N   0  0
   -4.5741   -3.6940   -1.9897 C   0  0
   -4.5857   -4.8078   -2.4698 O   0  0
   -5.7117   -2.7440   -2.2626 C   0  0  2  0  0  0
   -5.3232   -1.7400   -2.4330 H   0  0
   -6.6856   -2.7339   -1.0655 C   0  0
   -8.0753   -2.6387   -1.7490 C   0  0
   -7.8538   -3.4902   -3.0240 C   0  0
   -6.4675   -3.1943   -3.4405 N   0  0
   -5.9762   -3.3159   -4.6897 C   0  0
   -4.8129   -3.0420   -4.9149 O   0  0
   -6.8470   -3.7800   -5.7806 C   0  0
   -6.3622   -3.9000   -7.0132 C   0  0
   -1.6628   -7.7669   -0.7461 C   0  0
   -0.5684   -8.4963   -0.5710 N   0  0
    0.6248   -7.9357   -0.4549 C   0  0
    0.8114   -6.6382   -0.5036 N   0  0
   -2.9008   -8.3647   -0.8652 N   0  0
   -3.0324   -9.7461   -0.6773 C   0  0
   -2.1075  -10.4335    0.0970 C   0  0
   -2.2387  -11.7963    0.2821 C   0  0
   -3.2916  -12.4784   -0.3036 C   0  0
   -4.2170  -11.7963   -1.0771 C   0  0
   -4.0926  -10.4303   -1.2610 C   0  0
   -4.9975   -9.7635   -2.0105 F   0  0
   -5.5361  -12.6543   -1.8102 Cl  0  0
   -3.4167  -13.8111   -0.1210 F   0  0
    0.5490    2.1406    0.2512 H   0  0
   -0.9646    2.0751   -0.6832 H   0  0
   -1.0152    2.0507    1.0959 H   0  0
   -0.1624    0.0754   -1.8424 H   0  0
    1.3512    0.1409   -0.9080 H   0  0
    0.9598   -2.1630   -1.6373 H   0  0
    0.7507   -2.0678    0.1278 H   0  0
    0.9257   -3.9867   -0.6359 H   0  0
   -3.6209   -5.9329   -1.0887 H   0  0
   -3.5654   -2.4404   -0.7750 H   0  0
   -6.6006   -3.6565   -0.4913 H   0  0
   -6.5077   -1.8657   -0.4310 H   0  0
   -8.8512   -3.0734   -1.1188 H   0  0
   -8.3149   -1.6067   -2.0052 H   0  0
   -7.9646   -4.5504   -2.7961 H   0  0
   -8.5545   -3.1939   -3.8046 H   0  0
   -7.8801   -4.0232   -5.5806 H   0  0
   -5.3292   -3.6568   -7.2132 H   0  0
   -7.0016   -4.2407   -7.8141 H   0  0
    1.4836   -8.5752   -0.3137 H   0  0
   -3.6800   -7.8279   -1.0792 H   0  0
   -1.2854   -9.9030    0.5542 H   0  0
   -1.5186  -12.3304    0.8842 H   0  0
  1  2  1  0
  1 39  1  0
  1 40  1  0
  1 41  1  0
  2  3  1  0
  3  4  1  0
  3 42  1  0
  3 43  1  0
  4  5  1  0
  4 44  1  0
  4 45  1  0
  5  6  1  0
  6 11  4  0
  6  7  4  0
  7  8  4  0
  7 46  1  0
  8 28  4  0
  8  9  4  0
  9 10  4  0
  9 25  4  0
 10 11  4  0
 10 47  1  0
 11 12  1  0
 12 13  1  0
 12 48  1  0
 13 14  2  0
 13 15  1  0
 15 16  1  0
 15 20  1  0
 15 17  1  0
 17 18  1  0
 17 49  1  0
 17 50  1  0
 18 19  1  0
 18 51  1  0
 18 52  1  0
 19 20  1  0
 19 53  1  0
 19 54  1  0
 20 21  1  0
 21 22  2  0
 21 23  1  0
 23 24  2  0
 23 55  1  0
 24 56  1  0
 24 57  1  0
 25 26  4  0
 25 29  1  0
 26 27  4  0
 27 28  4  0
 27 58  1  0
 29 30  1  0
 29 59  1  0
 30 35  4  0
 30 31  4  0
 31 32  4  0
 31 60  1  0
 32 33  4  0
 32 61  1  0
 33 34  4  0
 33 38  1  0
 34 35  4  0
 34 37  1  0
 35 36  1  0
M  END
> <Name>
CHEMBL569880

$$$$
CHEMBL175933
  SciTegic01042610103D

 63 66  0  0  0  0            999 V2000
   -7.7078    2.5311    1.4851 C   0  0
   -9.0369    1.9815    1.1861 N   0  0
   -9.9249    2.1942    2.3368 C   0  0
   -9.5928    2.6587    0.0069 C   0  0
   -8.7487    2.3396   -1.2001 C   0  0
   -9.3119    1.8179   -2.2864 C   0  0
   -8.4881    1.5065   -3.4642 C   0  0
   -7.2919    1.7260   -3.4450 O   0  0
   -9.0587    0.9779   -4.5649 N   0  0
   -8.2966    0.7811   -5.7225 C   0  0
   -7.1245    1.4825   -5.8974 C   0  0
   -6.3626    1.2839   -7.0576 C   0  0
   -6.7999    0.3655   -8.0426 C   0  0
   -7.9978   -0.3372   -7.8423 C   0  0
   -8.7290   -0.1338   -6.6948 C   0  0
   -9.8846   -0.8217   -6.5035 O   0  0
  -10.2713   -1.7384   -7.5292 C   0  0
   -6.0742    0.1712   -9.1539 N   0  0
   -4.9528    0.8098   -9.3710 C   0  0
   -4.4439    1.7380   -8.4486 C   0  0
   -5.1542    1.9895   -7.2647 C   0  0
   -4.6887    2.8948   -6.3329 N   0  0
   -5.0406    4.2455   -6.4330 C   0  0
   -5.9822    4.6502   -7.3710 C   0  0
   -6.3301    5.9824   -7.4699 C   0  0
   -5.7389    6.9189   -6.6316 C   0  0
   -4.7968    6.5145   -5.6929 C   0  0
   -4.4528    5.1805   -5.5906 C   0  0
   -4.0572    7.6846   -4.6453 Cl  0  0
   -6.1828    8.6193   -6.7584 S   0  0
   -4.8953    9.3244   -7.7331 C   0  0
   -3.9633    8.5326   -8.2445 N   0  0
   -2.9834    9.0298   -8.9805 C   0  0
   -2.9391   10.3956   -9.2141 C   0  0
   -3.9295   11.1947   -8.6643 C   0  0
   -4.8847   10.6333   -7.9421 N   0  0
   -3.2131    2.4207   -8.7130 C   0  0
   -2.2368    2.9622   -8.9227 N   0  0
   -7.2953    2.0287    2.3600 H   0  0
   -7.0489    2.3733    0.6312 H   0  0
   -7.7930    3.5990    1.6858 H   0  0
  -10.0101    3.2621    2.5376 H   0  0
  -10.9111    1.7864    2.1150 H   0  0
   -9.5124    1.6918    3.2118 H   0  0
  -10.6132    2.3148   -0.1621 H   0  0
   -9.5954    3.7358    0.1740 H   0  0
   -7.6866    2.5344   -1.1830 H   0  0
  -10.3740    1.6230   -2.3034 H   0  0
   -9.9975    0.7339   -4.5550 H   0  0
   -6.7939    2.1825   -5.1444 H   0  0
   -8.3429   -1.0404   -8.5858 H   0  0
  -10.4032   -1.1994   -8.4674 H   0  0
   -9.4966   -2.4955   -7.6509 H   0  0
  -11.2092   -2.2197   -7.2517 H   0  0
   -4.4053    0.6179  -10.2819 H   0  0
   -4.1175    2.5948   -5.6085 H   0  0
   -6.4418    3.9224   -8.0232 H   0  0
   -7.0618    6.2965   -8.1994 H   0  0
   -3.7242    4.8652   -4.8585 H   0  0
   -2.2267    8.3798   -9.3942 H   0  0
   -2.1497   10.8278   -9.8113 H   0  0
   -3.9235   12.2623   -8.8272 H   0  0
   -8.9581    0.9929    1.0002 H   0  0
  1  2  1  0
  1 39  1  0
  1 40  1  0
  1 41  1  0
  2  3  1  0
  2  4  1  0
  2 63  1  0
  3 42  1  0
  3 43  1  0
  3 44  1  0
  4  5  1  0
  4 45  1  0
  4 46  1  0
  5  6  2  0
  5 47  1  0
  6  7  1  0
  6 48  1  0
  7  8  2  0
  7  9  1  0
  9 10  1  0
  9 49  1  0
 10 15  4  0
 10 11  4  0
 11 12  4  0
 11 50  1  0
 12 21  4  0
 12 13  4  0
 13 14  4  0
 13 18  4  0
 14 15  4  0
 14 51  1  0
 15 16  1  0
 16 17  1  0
 17 52  1  0
 17 53  1  0
 17 54  1  0
 18 19  4  0
 19 20  4  0
 19 55  1  0
 20 21  4  0
 20 37  1  0
 21 22  1  0
 22 23  1  0
 22 56  1  0
 23 28  4  0
 23 24  4  0
 24 25  4  0
 24 57  1  0
 25 26  4  0
 25 58  1  0
 26 27  4  0
 26 30  1  0
 27 28  4  0
 27 29  1  0
 28 59  1  0
 30 31  1  0
 31 36  4  0
 31 32  4  0
 32 33  4  0
 33 34  4  0
 33 60  1  0
 34 35  4  0
 34 61  1  0
 35 36  4  0
 35 62  1  0
 37 38  3  0
M  END
> <Name>
CHEMBL175933

$$$$
CHEMBL939
  SciTegic01042610103D

 55 58  0  0  0  0            999 V2000
   -0.7374    1.4118    0.5253 C   0  0
   -0.7263   -0.0171    0.5247 O   0  0
    0.0734   -0.6280    1.4373 C   0  0
    0.8188    0.1348    2.3090 C   0  0
    1.6420   -0.4976    3.2485 C   0  0
    1.6952   -1.9130    3.2874 C   0  0
    0.9277   -2.6653    2.3903 C   0  0
    0.1268   -2.0280    1.4855 C   0  0
   -0.6229   -2.7597    0.6185 O   0  0
   -0.5255   -4.1819    0.7171 C   0  0
   -1.4334   -4.8292   -0.3307 C   0  0
   -1.3291   -6.3519   -0.2252 C   0  0
   -2.2008   -6.9733   -1.2311 N   0  0
   -3.6165   -6.7053   -0.9393 C   0  0
   -4.4841   -7.3184   -2.0416 C   0  0
   -4.2065   -8.7181   -2.1368 O   0  0
   -2.8368   -9.0154   -2.4209 C   0  0
   -1.9524   -8.4195   -1.3224 C   0  0
    2.5361   -2.5234    4.2482 C   0  0
    3.2308   -1.7396    5.0625 N   0  0
    3.1493   -0.4206    4.9892 C   0  0
    2.3876    0.1999    4.1200 N   0  0
    2.6306   -3.8977    4.3362 N   0  0
    3.3713   -4.4833    5.3684 C   0  0
    3.4039   -3.8902    6.6240 C   0  0
    4.1353   -4.4698    7.6421 C   0  0
    4.8362   -5.6416    7.4124 C   0  0
    4.8054   -6.2354    6.1608 C   0  0
    4.0703   -5.6613    5.1406 C   0  0
    5.6852   -7.7046    5.8756 Cl  0  0
    5.5513   -6.2065    8.4097 F   0  0
    0.2683    1.7831    0.3285 H   0  0
   -1.4151    1.7702   -0.2495 H   0  0
   -1.0740    1.7722    1.4974 H   0  0
    0.7687    1.2128    2.2678 H   0  0
    0.9651   -3.7443    2.4164 H   0  0
    0.5060   -4.4884    0.5431 H   0  0
   -0.8359   -4.4993    1.7126 H   0  0
   -2.4649   -4.5227   -0.1568 H   0  0
   -1.1230   -4.5118   -1.3262 H   0  0
   -0.2976   -6.6584   -0.3991 H   0  0
   -1.6394   -6.6693    0.7704 H   0  0
   -3.8805   -7.1489    0.0207 H   0  0
   -3.7829   -5.6288   -0.9016 H   0  0
   -5.5369   -7.1717   -1.8001 H   0  0
   -4.2579   -6.8370   -2.9930 H   0  0
   -2.6980  -10.0960   -2.4536 H   0  0
   -2.5626   -8.5833   -3.3833 H   0  0
   -0.9041   -8.5942   -1.5643 H   0  0
   -2.1898   -8.8905   -0.3685 H   0  0
    3.7361    0.1714    5.6759 H   0  0
    2.1833   -4.4574    3.6823 H   0  0
    2.8578   -2.9760    6.8040 H   0  0
    4.1608   -4.0084    8.6183 H   0  0
    4.0430   -6.1262    4.1662 H   0  0
  1  2  1  0
  1 32  1  0
  1 33  1  0
  1 34  1  0
  2  3  1  0
  3  8  4  0
  3  4  4  0
  4  5  4  0
  4 35  1  0
  5 22  4  0
  5  6  4  0
  6  7  4  0
  6 19  4  0
  7  8  4  0
  7 36  1  0
  8  9  1  0
  9 10  1  0
 10 11  1  0
 10 37  1  0
 10 38  1  0
 11 12  1  0
 11 39  1  0
 11 40  1  0
 12 13  1  0
 12 41  1  0
 12 42  1  0
 13 18  1  0
 13 14  1  0
 14 15  1  0
 14 43  1  0
 14 44  1  0
 15 16  1  0
 15 45  1  0
 15 46  1  0
 16 17  1  0
 17 18  1  0
 17 47  1  0
 17 48  1  0
 18 49  1  0
 18 50  1  0
 19 20  4  0
 19 23  1  0
 20 21  4  0
 21 22  4  0
 21 51  1  0
 23 24  1  0
 23 52  1  0
 24 29  4  0
 24 25  4  0
 25 26  4  0
 25 53  1  0
 26 27  4  0
 26 54  1  0
 27 28  4  0
 27 31  1  0
 28 29  4  0
 28 30  1  0
 29 55  1  0
M  END
> <Name>
CHEMBL939

$$$$
CHEMBL175556
  SciTegic01042610103D

 75 79  0  0  0  0            999 V2000
    3.4777   -2.0803    3.6640 C   0  0
    2.7071   -2.8017    2.5565 C   0  0
    1.3942   -3.1222    3.0207 O   0  0
    0.5741   -3.7698    2.1527 C   0  0
    1.0302   -4.0888    0.8946 C   0  0
    0.1880   -4.7577   -0.0066 C   0  0
   -1.1269   -5.0964    0.3953 C   0  0
   -1.5738   -4.7634    1.6820 C   0  0
   -0.7275   -4.1115    2.5509 C   0  0
   -1.1700   -3.7832    3.8377 N   0  0
   -2.4793   -3.5561    4.0627 C   0  0
   -3.2894   -3.7365    3.1735 O   0  0
   -2.9285   -3.0902    5.3833 C   0  0
   -4.2207   -2.8661    5.6053 C   0  0
   -4.6810   -2.3887    6.9585 C   0  0
   -5.4527   -1.1483    6.8037 N   0  0
   -4.5976   -0.0521    6.3257 C   0  0
   -5.4515    1.2022    6.1217 C   0  0
   -6.1133    1.5267    7.3473 O   0  0
   -6.9551    0.4814    7.8414 C   0  0
   -6.1164   -0.7801    8.0628 C   0  0
   -1.9717   -5.7707   -0.5171 C   0  0
   -1.4560   -6.0718   -1.7870 C   0  0
   -0.1393   -5.6978   -2.1000 C   0  0
    0.6206   -5.0748   -1.2360 N   0  0
   -2.2638   -6.7536   -2.7530 C   0  0
   -2.9046   -7.2945   -3.5194 N   0  0
   -3.2606   -6.1213   -0.1697 N   0  0
   -3.5474   -7.4341    0.2206 C   0  0
   -2.5209   -8.2803    0.6202 C   0  0
   -2.8044   -9.5756    1.0057 C   0  0
   -4.1139  -10.0326    0.9939 C   0  0
   -5.1407   -9.1883    0.5944 C   0  0
   -4.8592   -7.8899    0.2142 C   0  0
   -6.7793   -9.7615    0.5788 Cl  0  0
   -4.3919  -11.3087    1.3734 O   0  0
   -3.2869  -12.1224    1.7720 C   0  0
   -3.7842  -13.4923    2.1551 C   0  0
   -4.1559  -13.7525    3.4609 C   0  0
   -4.6121  -15.0092    3.8124 C   0  0
   -4.6971  -16.0056    2.8579 C   0  0
   -4.3263  -15.7451    1.5519 C   0  0
   -3.8742  -14.4872    1.1996 C   0  0
    4.4792   -1.8359    3.3099 H   0  0
    2.9537   -1.1633    3.9333 H   0  0
    3.5493   -2.7279    4.5379 H   0  0
    2.6355   -2.1542    1.6826 H   0  0
    3.2312   -3.7188    2.2872 H   0  0
    2.0353   -3.8243    0.6007 H   0  0
   -2.5763   -5.0200    1.9913 H   0  0
   -0.5342   -3.7192    4.5676 H   0  0
   -2.2092   -2.9301    6.1728 H   0  0
   -4.9400   -3.0263    4.8158 H   0  0
   -5.3085   -3.1519    7.4190 H   0  0
   -3.8140   -2.2006    7.5917 H   0  0
   -3.8213    0.1521    7.0631 H   0  0
   -4.1364   -0.3362    5.3798 H   0  0
   -4.8125    2.0328    5.8221 H   0  0
   -6.1938    1.0149    5.3458 H   0  0
   -7.4034    0.7908    8.7855 H   0  0
   -7.7410    0.2732    7.1154 H   0  0
   -6.7639   -1.5957    8.3849 H   0  0
   -5.3644   -0.5876    8.8279 H   0  0
    0.2559   -5.9303   -3.0778 H   0  0
   -3.9676   -5.4577   -0.1960 H   0  0
   -1.5010   -7.9252    0.6290 H   0  0
   -2.0060  -10.2333    1.3163 H   0  0
   -5.6585   -7.2313   -0.0921 H   0  0
   -2.5828  -12.2097    0.9444 H   0  0
   -2.7883  -11.6647    2.6264 H   0  0
   -4.0894  -12.9741    4.2066 H   0  0
   -4.9017  -15.2127    4.8327 H   0  0
   -5.0529  -16.9876    3.1327 H   0  0
   -4.3924  -16.5236    0.8063 H   0  0
   -3.5880  -14.2827    0.1785 H   0  0
  1  2  1  0
  1 44  1  0
  1 45  1  0
  1 46  1  0
  2  3  1  0
  2 47  1  0
  2 48  1  0
  3  4  1  0
  4  9  4  0
  4  5  4  0
  5  6  4  0
  5 49  1  0
  6 25  4  0
  6  7  4  0
  7  8  4  0
  7 22  4  0
  8  9  4  0
  8 50  1  0
  9 10  1  0
 10 11  1  0
 10 51  1  0
 11 12  2  0
 11 13  1  0
 13 14  2  0
 13 52  1  0
 14 15  1  0
 14 53  1  0
 15 16  1  0
 15 54  1  0
 15 55  1  0
 16 21  1  0
 16 17  1  0
 17 18  1  0
 17 56  1  0
 17 57  1  0
 18 19  1  0
 18 58  1  0
 18 59  1  0
 19 20  1  0
 20 21  1  0
 20 60  1  0
 20 61  1  0
 21 62  1  0
 21 63  1  0
 22 23  4  0
 22 28  1  0
 23 24  4  0
 23 26  1  0
 24 25  4  0
 24 64  1  0
 26 27  3  0
 28 29  1  0
 28 65  1  0
 29 34  4  0
 29 30  4  0
 30 31  4  0
 30 66  1  0
 31 32  4  0
 31 67  1  0
 32 33  4  0
 32 36  1  0
 33 34  4  0
 33 35  1  0
 34 68  1  0
 36 37  1  0
 37 38  1  0
 37 69  1  0
 37 70  1  0
 38 43  4  0
 38 39  4  0
 39 40  4  0
 39 71  1  0
 40 41  4  0
 40 72  1  0
 41 42  4  0
 41 73  1  0
 42 43  4  0
 42 74  1  0
 43 75  1  0
M  END
> <Name>
CHEMBL175556

$$$$
CHEMBL294034
  SciTegic01042610103D

 46 49  0  0  0  0            999 V2000
   -0.1036    1.4281   -0.8716 C   0  0
   -0.0864   -0.0007   -0.8902 O   0  0
   -1.2669   -0.6347   -0.6663 C   0  0
   -2.4061    0.1062   -0.4415 C   0  0
   -3.6213   -0.5499   -0.2110 C   0  0
   -3.6596   -1.9664   -0.2127 C   0  0
   -2.4874   -2.6960   -0.4438 C   0  0
   -1.3135   -2.0356   -0.6722 C   0  0
   -0.1766   -2.7453   -0.9024 O   0  0
   -0.2885   -4.1699   -0.8958 C   0  0
    1.0827   -4.7904   -1.1710 C   0  0
    0.9680   -6.2509   -1.1641 N   0  0
    1.1107   -7.0718   -0.0781 C   0  0
    0.9261   -8.3321   -0.5154 C   0  0
    0.6774   -8.2821   -1.8324 N   0  0
    0.6959   -7.0383   -2.2270 C   0  0
   -4.9024   -2.6011    0.0227 C   0  0
   -5.9670   -1.8378    0.2328 N   0  0
   -5.8833   -0.5169    0.2252 C   0  0
   -4.7596    0.1255    0.0127 N   0  0
   -5.0044   -3.9776    0.0331 N   0  0
   -6.2593   -4.5852    0.1467 C   0  0
   -7.3723   -3.9975   -0.4410 C   0  0
   -8.6105   -4.5989   -0.3284 C   0  0
   -8.7435   -5.7871    0.3699 C   0  0
   -7.6350   -6.3755    0.9572 C   0  0
   -6.3931   -5.7795    0.8422 C   0  0
   -7.8048   -7.8653    1.8321 Cl  0  0
   -9.9558   -6.3732    0.4792 F   0  0
    0.9005    1.8061   -1.0638 H   0  0
   -0.7830    1.7934   -1.6418 H   0  0
   -0.4416    1.7747    0.1051 H   0  0
   -2.3623    1.1853   -0.4426 H   0  0
   -2.5118   -3.7757   -0.4461 H   0  0
   -0.6485   -4.5015    0.0781 H   0  0
   -0.9906   -4.4828   -1.6686 H   0  0
    1.4428   -4.4588   -2.1449 H   0  0
    1.7848   -4.4775   -0.3982 H   0  0
    1.3297   -6.7673    0.9347 H   0  0
    0.9705   -9.2263    0.0886 H   0  0
    0.5246   -6.6956   -3.2368 H   0  0
   -6.7805    0.0578    0.4018 H   0  0
   -4.2058   -4.5236   -0.0384 H   0  0
   -7.2695   -3.0705   -0.9855 H   0  0
   -9.4758   -4.1417   -0.7851 H   0  0
   -5.5283   -6.2402    1.2964 H   0  0
  1  2  1  0
  1 30  1  0
  1 31  1  0
  1 32  1  0
  2  3  1  0
  3  8  4  0
  3  4  4  0
  4  5  4  0
  4 33  1  0
  5 20  4  0
  5  6  4  0
  6  7  4  0
  6 17  4  0
  7  8  4  0
  7 34  1  0
  8  9  1  0
  9 10  1  0
 10 11  1  0
 10 35  1  0
 10 36  1  0
 11 12  1  0
 11 37  1  0
 11 38  1  0
 12 16  1  0
 12 13  1  0
 13 14  2  0
 13 39  1  0
 14 15  1  0
 14 40  1  0
 15 16  2  0
 16 41  1  0
 17 18  4  0
 17 21  1  0
 18 19  4  0
 19 20  4  0
 19 42  1  0
 21 22  1  0
 21 43  1  0
 22 27  4  0
 22 23  4  0
 23 24  4  0
 23 44  1  0
 24 25  4  0
 24 45  1  0
 25 26  4  0
 25 29  1  0
 26 27  4  0
 26 28  1  0
 27 46  1  0
M  END
> <Name>
CHEMBL294034

$$$$
CHEMBL272935
  SciTegic01042610103D

 66 70  0  0  0  0            999 V2000
    1.6027    1.3602   -0.3018 C   0  0
    1.5594   -0.1080   -0.2826 N   0  0  2  0  0  0
    0.1818   -0.5600   -0.5184 C   0  0
    0.1394   -2.0896   -0.5172 C   0  0
    0.6223   -2.5892    0.7779 N   0  0
    1.9918   -2.1240    1.0391 C   0  0
    2.0189   -0.5940    1.0251 C   0  0
    0.5435   -4.0548    0.8393 C   0  0
    0.8133   -4.5205    2.2716 C   0  0
    0.7312   -6.0469    2.3356 C   0  0
    0.9832   -6.4819    3.6733 O   0  0
    0.9476   -7.8207    3.9038 C   0  0
    1.1677   -8.4814    5.1853 C   0  0
    1.0338   -9.8642    4.9490 C   0  0
    0.7549  -10.0113    3.6243 N   0  0
    0.6100  -10.8571    3.1720 H   0  0
    0.7043   -8.7510    3.0189 N   0  0
    1.1896  -10.7049    5.9713 N   0  0
    1.4625  -10.2534    7.1759 C   0  0
    1.5967   -8.9665    7.4429 N   0  0
    1.4598   -8.0491    6.4901 C   0  0
    1.6011   -6.7046    6.7758 N   0  0
    2.0103   -6.2994    8.0520 C   0  0
    1.4971   -5.1353    8.6091 C   0  0
    1.9008   -4.7358    9.8679 C   0  0
    2.8188   -5.4966   10.5763 C   0  0
    3.3326   -6.6602   10.0208 C   0  0
    2.9250   -7.0641    8.7635 C   0  0
    4.4816   -7.6120   10.9083 Cl  0  0
    3.2162   -5.1021   11.8158 O   0  0
    2.6474   -3.8944   12.3256 C   0  0
    3.2014   -3.6191   13.6998 C   0  0
    4.1204   -4.4909   14.2531 C   0  0
    4.6240   -4.2285   15.5177 C   0  0
    4.1824   -3.0939   16.1816 C   0  0
    3.2616   -2.2684   15.5650 C   0  0
    2.8081   -2.5466   14.3582 N   0  0
    2.6251    1.6958   -0.1282 H   0  0
    1.2617    1.7211   -1.2722 H   0  0
    0.9535    1.7532    0.4806 H   0  0
   -0.4660   -0.1779    0.2706 H   0  0
   -0.1625   -0.1877   -1.4833 H   0  0
   -0.8852   -2.4252   -0.6774 H   0  0
    0.7765   -2.4718   -1.3149 H   0  0
    2.3186   -2.4846    2.0144 H   0  0
    2.6593   -2.5067    0.2671 H   0  0
    3.0365   -0.2471    1.2045 H   0  0
    1.3617   -0.2118    1.8062 H   0  0
   -0.4514   -4.3784    0.5334 H   0  0
    1.2878   -4.4871    0.1705 H   0  0
    1.8082   -4.1970    2.5775 H   0  0
    0.0690   -4.0883    2.9404 H   0  0
   -0.2637   -6.3705    2.0297 H   0  0
    1.4754   -6.4792    1.6667 H   0  0
    1.5817  -10.9640    7.9804 H   0  0
    1.4169   -6.0415    6.0923 H   0  0
    0.7824   -4.5422    8.0577 H   0  0
    1.5018   -3.8303   10.3006 H   0  0
    3.3212   -7.9719    8.3328 H   0  0
    2.8960   -3.0669   11.6612 H   0  0
    1.5641   -3.9998   12.3851 H   0  0
    4.4418   -5.3656   13.7071 H   0  0
    5.3428   -4.8921   15.9752 H   0  0
    4.5531   -2.8587   17.1683 H   0  0
    2.9127   -1.3829   16.0753 H   0  0
    2.1608   -0.4716   -1.0067 H   0  0
  1  2  1  0
  1 38  1  0
  1 39  1  0
  1 40  1  0
  2  7  1  0
  2  3  1  0
  2 66  1  0
  3  4  1  0
  3 41  1  0
  3 42  1  0
  4  5  1  0
  4 43  1  0
  4 44  1  0
  5  6  1  0
  5  8  1  0
  6  7  1  0
  6 45  1  0
  6 46  1  0
  7 47  1  0
  7 48  1  0
  8  9  1  0
  8 49  1  0
  8 50  1  0
  9 10  1  0
  9 51  1  0
  9 52  1  0
 10 11  1  0
 10 53  1  0
 10 54  1  0
 11 12  1  0
 12 17  2  0
 12 13  1  0
 13 21  4  0
 13 14  4  0
 14 15  1  0
 14 18  4  0
 15 16  1  0
 15 17  1  0
 18 19  4  0
 19 20  4  0
 19 55  1  0
 20 21  4  0
 21 22  1  0
 22 23  1  0
 22 56  1  0
 23 28  4  0
 23 24  4  0
 24 25  4  0
 24 57  1  0
 25 26  4  0
 25 58  1  0
 26 27  4  0
 26 30  1  0
 27 28  4  0
 27 29  1  0
 28 59  1  0
 30 31  1  0
 31 32  1  0
 31 60  1  0
 31 61  1  0
 32 37  4  0
 32 33  4  0
 33 34  4  0
 33 62  1  0
 34 35  4  0
 34 63  1  0
 35 36  4  0
 35 64  1  0
 36 37  4  0
 36 65  1  0
M  END
> <Name>
CHEMBL272935

$$$$
CHEMBL316127
  SciTegic01042610103D

 52 55  0  0  0  0            999 V2000
    1.2349   -0.4716    1.6895 C   0  0
    2.4065    0.2331    1.4928 C   0  0
    2.3939    1.4051    0.7474 C   0  0
    1.2021    1.8649    0.2017 C   0  0
    0.0335    1.1555    0.4021 C   0  0
    0.0500   -0.0118    1.1455 C   0  0
   -1.5899    1.7800   -0.3399 Br  0  0
    3.5779    2.1205    0.5471 N   0  0
    4.7802    1.4505    0.4460 C   0  0
    6.0038    2.1599    0.3642 C   0  0
    6.0536    3.5575    0.3822 C   0  0
    7.2764    4.1919    0.2996 C   0  0
    8.4575    3.4501    0.1989 C   0  0
    8.4302    2.0889    0.1794 C   0  0
    7.2039    1.4147    0.2621 C   0  0
    7.1302    0.0749    0.2473 N   0  0
    5.9685   -0.5287    0.3261 C   0  0
    4.8221    0.1253    0.4283 N   0  0
    7.3349    5.5893    0.3165 N   0  0
    8.3764    6.2132    0.9016 C   0  0
    9.2199    5.5654    1.4916 O   0  0
    8.4931    7.6773    0.8265 C   0  0
    9.5210    8.2931    1.4039 C   0  0
    9.6405    9.7934    1.3270 C   0  0
    9.7548   10.3457    2.6835 N   0  0
    8.5130   10.1388    3.4428 C   0  0
    8.6960   10.6743    4.8654 C   0  0
    9.0708   12.0532    4.8058 O   0  0
   10.2764   12.2909    4.0740 C   0  0
   10.1095   11.7718    2.6435 C   0  0
    1.2453   -1.3852    2.2653 H   0  0
    3.3316   -0.1266    1.9185 H   0  0
    1.1888    2.7760   -0.3780 H   0  0
   -0.8645   -0.5650    1.3005 H   0  0
    3.5545    3.0878    0.4792 H   0  0
    5.1440    4.1346    0.4595 H   0  0
    9.4051    3.9643    0.1353 H   0  0
    9.3510    1.5300    0.1005 H   0  0
    5.9466   -1.6083    0.3114 H   0  0
    6.6258    6.1094   -0.0930 H   0  0
    7.7441    8.2525    0.3025 H   0  0
   10.2700    7.7179    1.9279 H   0  0
   10.5272   10.0582    0.7511 H   0  0
    8.7555   10.2039    0.8409 H   0  0
    7.6957   10.6709    2.9559 H   0  0
    8.2831    9.0741    3.4815 H   0  0
    7.7598   10.5751    5.4148 H   0  0
    9.4772   10.1062    5.3705 H   0  0
   10.4833   13.3609    4.0512 H   0  0
   11.1036   11.7699    4.5561 H   0  0
   11.0450   11.8990    2.0986 H   0  0
    9.3177   12.3299    2.1438 H   0  0
  1  6  4  0
  1  2  4  0
  1 31  1  0
  2  3  4  0
  2 32  1  0
  3  4  4  0
  3  8  1  0
  4  5  4  0
  4 33  1  0
  5  6  4  0
  5  7  1  0
  6 34  1  0
  8  9  1  0
  8 35  1  0
  9 18  4  0
  9 10  4  0
 10 15  4  0
 10 11  4  0
 11 12  4  0
 11 36  1  0
 12 13  4  0
 12 19  1  0
 13 14  4  0
 13 37  1  0
 14 15  4  0
 14 38  1  0
 15 16  4  0
 16 17  4  0
 17 18  4  0
 17 39  1  0
 19 20  1  0
 19 40  1  0
 20 21  2  0
 20 22  1  0
 22 23  2  0
 22 41  1  0
 23 24  1  0
 23 42  1  0
 24 25  1  0
 24 43  1  0
 24 44  1  0
 25 30  1  0
 25 26  1  0
 26 27  1  0
 26 45  1  0
 26 46  1  0
 27 28  1  0
 27 47  1  0
 27 48  1  0
 28 29  1  0
 29 30  1  0
 29 49  1  0
 29 50  1  0
 30 51  1  0
 30 52  1  0
M  END
> <Name>
CHEMBL316127

$$$$
CHEMBL470012
  SciTegic01042610103D

 55 59  0  0  0  0            999 V2000
   -0.1040    1.5987   -0.4773 C   0  0
    1.1085    2.2493   -0.3601 C   0  0
    2.2765    1.5147   -0.2001 C   0  0
    2.2205    0.1274   -0.1586 C   0  0
    1.0047   -0.5170   -0.2764 C   0  0
   -0.1562    0.2174   -0.4356 C   0  0
   -1.4811   -0.4891   -0.5639 C   0  0
   -1.7644   -0.7777   -2.0395 C   0  0
   -3.0559   -1.4664   -2.1646 N   0  0
   -3.0005   -2.8043   -1.5578 C   0  0
   -4.3797   -3.4614   -1.6570 C   0  0
   -4.7839   -3.5051   -3.0281 O   0  0
   -4.8492   -2.2190   -3.6504 C   0  0
   -3.4747   -1.5494   -3.5714 C   0  0
    3.5057    2.1701   -0.0816 N   0  0
    3.5539    3.4651    0.3904 C   0  0
    2.5775    4.2076    0.8732 N   0  0
    2.7693    5.4603    1.2999 C   0  0
    4.0922    5.9499    1.2035 C   0  0
    4.9587    4.5650    0.5118 S   0  0
    4.4184    7.2248    1.6106 C   0  0
    3.4480    7.9990    2.1044 N   0  0
    2.2156    7.5339    2.1908 C   0  0
    1.8668    6.3295    1.8148 N   0  0
    5.7206    7.6924    1.5108 N   0  0
    6.0546    8.9478    2.0296 C   0  0
    5.4028    9.4301    3.1575 C   0  0
    5.7337   10.6697    3.6685 C   0  0
    6.7146   11.4325    3.0575 C   0  0
    7.3664   10.9539    1.9323 C   0  0
    7.0421    9.7111    1.4212 C   0  0
    8.5955   11.9126    1.1681 Cl  0  0
    7.0362   12.6450    3.5589 F   0  0
   -1.0130    2.1694   -0.5972 H   0  0
    1.1486    3.3280   -0.3931 H   0  0
    3.1269   -0.4467   -0.0347 H   0  0
    0.9606   -1.5956   -0.2446 H   0  0
   -1.4476   -1.4274   -0.0101 H   0  0
   -2.2710    0.1437   -0.1593 H   0  0
   -1.7979    0.1605   -2.5933 H   0  0
   -0.9745   -1.4105   -2.4442 H   0  0
   -2.2680   -3.4139   -2.0869 H   0  0
   -2.7134   -2.7171   -0.5099 H   0  0
   -4.3293   -4.4752   -1.2599 H   0  0
   -5.1017   -2.8805   -1.0831 H   0  0
   -5.1383   -2.3344   -4.6950 H   0  0
   -5.5848   -1.6020   -3.1344 H   0  0
   -3.5338   -0.5462   -3.9933 H   0  0
   -2.7498   -2.1390   -4.1327 H   0  0
    4.3245    1.7141   -0.3314 H   0  0
    1.4526    8.1832    2.5942 H   0  0
    6.3996    7.1488    1.0813 H   0  0
    4.6373    8.8360    3.6345 H   0  0
    5.2266   11.0448    4.5452 H   0  0
    7.5533    9.3361    0.5468 H   0  0
  1  6  4  0
  1  2  4  0
  1 34  1  0
  2  3  4  0
  2 35  1  0
  3  4  4  0
  3 15  1  0
  4  5  4  0
  4 36  1  0
  5  6  4  0
  5 37  1  0
  6  7  1  0
  7  8  1  0
  7 38  1  0
  7 39  1  0
  8  9  1  0
  8 40  1  0
  8 41  1  0
  9 14  1  0
  9 10  1  0
 10 11  1  0
 10 42  1  0
 10 43  1  0
 11 12  1  0
 11 44  1  0
 11 45  1  0
 12 13  1  0
 13 14  1  0
 13 46  1  0
 13 47  1  0
 14 48  1  0
 14 49  1  0
 15 16  1  0
 15 50  1  0
 16 20  1  0
 16 17  2  0
 17 18  1  0
 18 24  4  0
 18 19  4  0
 19 20  1  0
 19 21  4  0
 21 22  4  0
 21 25  1  0
 22 23  4  0
 23 24  4  0
 23 51  1  0
 25 26  1  0
 25 52  1  0
 26 31  4  0
 26 27  4  0
 27 28  4  0
 27 53  1  0
 28 29  4  0
 28 54  1  0
 29 30  4  0
 29 33  1  0
 30 31  4  0
 30 32  1  0
 31 55  1  0
M  END
> <Name>
CHEMBL470012

$$$$
CHEMBL207674
  SciTegic01042610103D

 52 55  0  0  0  0            999 V2000
    1.4504    1.2203    0.7841 C   0  0
    1.1725   -0.1715    0.6176 O   0  0
    1.5618   -0.7424   -0.5513 C   0  0
    2.1992    0.0233   -1.5049 C   0  0
    2.5992   -0.5689   -2.7079 C   0  0
    2.3418   -1.9456   -2.9243 C   0  0
    1.6929   -2.6971   -1.9377 C   0  0
    1.3173   -2.1003   -0.7720 C   0  0
    0.6239   -2.9137    0.2905 C   0  0
   -0.8240   -2.6754    0.2225 N   0  0
   -1.1474   -1.2883    0.5866 C   0  0
   -2.6557   -1.0675    0.4450 C   0  0
   -3.3498   -2.0168    1.2589 O   0  0
   -3.0588   -3.3781    0.9310 C   0  0
   -1.5545   -3.6222    1.0776 C   0  0  2  0  0  0
   -1.1492   -3.4183    2.5147 C   0  0
   -0.3325   -2.5683    2.7996 O   0  0
   -1.6945   -4.1806    3.4832 N   0  0
    2.7580   -2.5180   -4.1501 C   0  0
    3.3672   -1.7364   -5.0326 N   0  0
    3.5862   -0.4548   -4.7864 C   0  0
    3.2232    0.1295   -3.6693 N   0  0
    2.5366   -3.8526   -4.4199 N   0  0
    3.0748   -4.4315   -5.5745 C   0  0
    4.1273   -3.8138   -6.2369 C   0  0
    4.6574   -4.3874   -7.3763 C   0  0
    4.1419   -5.5762   -7.8589 C   0  0
    3.0930   -6.1962   -7.2028 C   0  0
    2.5607   -5.6296   -6.0578 C   0  0
    1.5405   -6.2371   -5.4134 F   0  0
    2.4487   -7.6883   -7.8128 Cl  0  0
    2.5259    1.3861    0.7211 H   0  0
    0.9488    1.7873   -0.0001 H   0  0
    1.0885    1.5491    1.7583 H   0  0
    2.3877    1.0714   -1.3248 H   0  0
    1.4943   -3.7464   -2.0982 H   0  0
    0.8260   -3.9723    0.1273 H   0  0
    0.9947   -2.6201    1.2725 H   0  0
   -0.8478   -1.1035    1.6182 H   0  0
   -0.6158   -0.6048   -0.0755 H   0  0
   -2.9077   -0.0576    0.7684 H   0  0
   -2.9467   -1.1999   -0.5971 H   0  0
   -3.6022   -4.0393    1.6060 H   0  0
   -3.3614   -3.5777   -0.0969 H   0  0
   -1.3200   -4.6425    0.7739 H   0  0
   -2.3477   -4.8605    3.2553 H   0  0
   -1.4336   -4.0494    4.4083 H   0  0
    4.0866    0.1367   -5.5388 H   0  0
    2.0079   -4.3896   -3.8093 H   0  0
    4.5311   -2.8851   -5.8617 H   0  0
    5.4758   -3.9063   -7.8913 H   0  0
    4.5585   -6.0217   -8.7502 H   0  0
  1  2  1  0
  1 32  1  0
  1 33  1  0
  1 34  1  0
  2  3  1  0
  3  8  4  0
  3  4  4  0
  4  5  4  0
  4 35  1  0
  5 22  4  0
  5  6  4  0
  6  7  4  0
  6 19  4  0
  7  8  4  0
  7 36  1  0
  8  9  1  0
  9 10  1  0
  9 37  1  0
  9 38  1  0
 10 15  1  0
 10 11  1  0
 11 12  1  0
 11 39  1  0
 11 40  1  0
 12 13  1  0
 12 41  1  0
 12 42  1  0
 13 14  1  0
 14 15  1  0
 14 43  1  0
 14 44  1  0
 15 16  1  0
 15 45  1  0
 16 17  2  0
 16 18  1  0
 18 46  1  0
 18 47  1  0
 19 20  4  0
 19 23  1  0
 20 21  4  0
 21 22  4  0
 21 48  1  0
 23 24  1  0
 23 49  1  0
 24 29  4  0
 24 25  4  0
 25 26  4  0
 25 50  1  0
 26 27  4  0
 26 51  1  0
 27 28  4  0
 27 52  1  0
 28 29  4  0
 28 31  1  0
 29 30  1  0
M  END
> <Name>
CHEMBL207674

$$$$
CHEMBL217536
  SciTegic01042610103D

 41 44  0  0  0  0            999 V2000
    1.0626   -0.4518    0.5692 C   0  0
    2.2531    0.2484    0.5899 C   0  0
    2.3780    1.4254   -0.1368 C   0  0
    1.3043    1.8950   -0.8827 C   0  0
    0.1160    1.1901   -0.8993 C   0  0
   -0.0046    0.0176   -0.1738 C   0  0
   -1.3467    1.8278   -1.9141 Br  0  0
    3.5814    2.1362   -0.1174 N   0  0
    4.7797    1.4612   -0.0036 C   0  0
    6.0015    2.1654    0.1316 C   0  0
    6.0534    3.5629    0.1562 C   0  0
    7.2741    4.1920    0.2907 C   0  0
    8.4511    3.4455    0.4012 C   0  0
    8.4219    2.0843    0.3794 C   0  0
    7.1974    1.4152    0.2445 C   0  0
    7.1217    0.0757    0.2188 N   0  0
    5.9618   -0.5230    0.0914 C   0  0
    4.8183    0.1357   -0.0123 N   0  0
    7.3346    5.5902    0.3162 N   0  0
    6.3562    6.2962    0.9167 C   0  0
    5.3819    5.7262    1.3605 O   0  0
    6.4727    7.7939    1.0369 C   0  0  2  0  0  0
    5.8412    8.2615    2.3549 C   0  0
    5.2948    9.7056    2.3807 C   0  0
    4.3029    9.8153    0.8179 S   0  0
    5.5509    8.6059   -0.3383 S   0  0
    0.9667   -1.3694    1.1306 H   0  0
    3.0861   -0.1190    1.1710 H   0  0
    1.3980    2.8101   -1.4486 H   0  0
   -0.9342   -0.5319   -0.1885 H   0  0
    3.5742    3.1039   -0.1838 H   0  0
    5.1470    4.1439    0.0705 H   0  0
    9.3972    3.9558    0.5049 H   0  0
    9.3397    1.5216    0.4655 H   0  0
    5.9381   -1.6026    0.0745 H   0  0
    8.0808    6.0510   -0.0983 H   0  0
    7.5220    8.0872    1.0028 H   0  0
    5.0209    7.5853    2.5954 H   0  0
    6.5914    8.1698    3.1404 H   0  0
    4.6580    9.8602    3.2518 H   0  0
    6.1125   10.4263    2.3684 H   0  0
  1  6  4  0
  1  2  4  0
  1 27  1  0
  2  3  4  0
  2 28  1  0
  3  4  4  0
  3  8  1  0
  4  5  4  0
  4 29  1  0
  5  6  4  0
  5  7  1  0
  6 30  1  0
  8  9  1  0
  8 31  1  0
  9 18  4  0
  9 10  4  0
 10 15  4  0
 10 11  4  0
 11 12  4  0
 11 32  1  0
 12 13  4  0
 12 19  1  0
 13 14  4  0
 13 33  1  0
 14 15  4  0
 14 34  1  0
 15 16  4  0
 16 17  4  0
 17 18  4  0
 17 35  1  0
 19 20  1  0
 19 36  1  0
 20 21  2  0
 20 22  1  0
 22 26  1  0
 22 23  1  0
 22 37  1  0
 23 24  1  0
 23 38  1  0
 23 39  1  0
 24 25  1  0
 24 40  1  0
 24 41  1  0
 25 26  1  0
M  END
> <Name>
CHEMBL217536

$$$$
CHEMBL203599
  SciTegic01042610103D

 57 60  0  0  0  0            999 V2000
   -1.2555    1.4668    0.5170 C   0  0
   -1.0993    0.0079    0.4446 N   0  0  2  0  0  0
   -2.4191   -0.6306    0.5348 C   0  0
   -2.2586   -2.1495    0.4405 C   0  0
   -1.3936   -2.6166    1.5331 N   0  0
   -0.0767   -1.9670    1.4704 C   0  0
   -0.2552   -0.4496    1.5562 C   0  0
   -1.2606   -4.0794    1.5107 C   0  0
   -0.5682   -4.5483    2.7919 C   0  0
   -0.4349   -6.0140    2.7694 C   0  0
   -0.3287   -7.1831    2.7514 C   0  0
   -0.1991   -8.6090    2.7295 C   0  0
    0.3279   -9.1862    3.6615 O   0  0
   -0.6610   -9.3116    1.6762 N   0  0
   -0.4425  -10.6875    1.6056 C   0  0
   -0.8244  -11.3766    0.4675 C   0  0
   -0.5960  -12.7532    0.4187 C   0  0
    0.0149  -13.3847    1.5325 C   0  0
    0.3656  -12.6007    2.6393 C   0  0
    0.1327  -11.3079    2.6300 N   0  0
    0.2316  -14.7055    1.4790 N   0  0
   -0.1116  -15.4020    0.4237 C   0  0
   -0.6841  -14.8809   -0.6498 N   0  0
   -0.9553  -13.5830   -0.7273 C   0  0
   -1.5528  -13.0409   -1.8460 N   0  0
   -1.9857  -13.8756   -2.8817 C   0  0
   -2.4494  -15.1537   -2.5971 C   0  0
   -2.8769  -15.9764   -3.6207 C   0  0
   -2.8437  -15.5285   -4.9304 C   0  0
   -2.3812  -14.2542   -5.2173 C   0  0
   -1.9579  -13.4256   -4.1950 C   0  0
   -2.3397  -13.6957   -6.8605 Cl  0  0
   -3.2624  -16.3351   -5.9301 F   0  0
   -0.2764    1.9409    0.4488 H   0  0
   -1.8820    1.8065   -0.3078 H   0  0
   -1.7242    1.7355    1.4637 H   0  0
   -2.8832   -0.3727    1.4867 H   0  0
   -3.0488   -0.2803   -0.2831 H   0  0
   -3.2363   -2.6243    0.5224 H   0  0
   -1.8070   -2.4087   -0.5170 H   0  0
    0.5374   -2.3086    2.3037 H   0  0
    0.4108   -2.2232    0.5298 H   0  0
    0.7194    0.0349    1.4956 H   0  0
   -0.7304   -0.1926    2.5029 H   0  0
   -2.2495   -4.5331    1.4451 H   0  0
   -0.6664   -4.3769    0.6467 H   0  0
    0.4207   -4.0945    2.8574 H   0  0
   -1.1625   -4.2507    3.6558 H   0  0
   -1.1454   -8.8605    0.9672 H   0  0
   -1.2876  -10.8625   -0.3617 H   0  0
    0.8319  -13.0588    3.4990 H   0  0
    0.0846  -16.4640    0.4300 H   0  0
   -1.6728  -12.0808   -1.9146 H   0  0
   -2.4753  -15.5040   -1.5758 H   0  0
   -3.2371  -16.9702   -3.3993 H   0  0
   -1.6016  -12.4308   -4.4181 H   0  0
   -0.6651   -0.2406   -0.4316 H   0  0
  1  2  1  0
  1 34  1  0
  1 35  1  0
  1 36  1  0
  2  7  1  0
  2  3  1  0
  2 57  1  0
  3  4  1  0
  3 37  1  0
  3 38  1  0
  4  5  1  0
  4 39  1  0
  4 40  1  0
  5  6  1  0
  5  8  1  0
  6  7  1  0
  6 41  1  0
  6 42  1  0
  7 43  1  0
  7 44  1  0
  8  9  1  0
  8 45  1  0
  8 46  1  0
  9 10  1  0
  9 47  1  0
  9 48  1  0
 10 11  3  0
 11 12  1  0
 12 13  2  0
 12 14  1  0
 14 15  1  0
 14 49  1  0
 15 20  4  0
 15 16  4  0
 16 17  4  0
 16 50  1  0
 17 24  4  0
 17 18  4  0
 18 19  4  0
 18 21  4  0
 19 20  4  0
 19 51  1  0
 21 22  4  0
 22 23  4  0
 22 52  1  0
 23 24  4  0
 24 25  1  0
 25 26  1  0
 25 53  1  0
 26 31  4  0
 26 27  4  0
 27 28  4  0
 27 54  1  0
 28 29  4  0
 28 55  1  0
 29 30  4  0
 29 33  1  0
 30 31  4  0
 30 32  1  0
 31 56  1  0
M  END
> <Name>
CHEMBL203599

$$$$
CHEMBL179572
  SciTegic01042610103D

 61 64  0  0  0  0            999 V2000
    5.1020    2.7115    5.9019 C   0  0
    5.5192    2.1721    7.2031 N   0  0
    6.9528    2.4246    7.4009 C   0  0
    4.7545    2.8273    8.2726 C   0  0
    3.2970    2.4676    8.1408 C   0  0
    2.6498    1.9268    9.1693 C   0  0
    1.2274    1.5758    9.0407 C   0  0
    0.6429    1.7800    7.9937 O   0  0
    0.5716    1.0278   10.0829 N   0  0
   -0.8057    0.7927    9.9977 C   0  0
   -1.5604    1.4764    9.0708 C   0  0
   -2.9397    1.2392    8.9867 C   0  0
   -3.5501    0.2999    9.8529 C   0  0
   -2.7605   -0.3842   10.7896 C   0  0
   -1.4076   -0.1425   10.8536 C   0  0
   -0.6474   -0.8119   11.7587 O   0  0
   -1.3183   -1.7508   12.6015 C   0  0
   -4.8692    0.0686    9.7759 N   0  0
   -5.6335    0.6890    8.9139 C   0  0
   -5.1133    1.6356    8.0166 C   0  0
   -3.7406    1.9259    8.0444 C   0  0
   -3.1900    2.8502    7.1801 N   0  0
   -3.1399    4.2016    7.5401 C   0  0
   -3.4959    4.5917    8.8251 C   0  0
   -3.4463    5.9244    9.1810 C   0  0
   -3.0404    6.8764    8.2543 C   0  0
   -2.6841    6.4865    6.9683 C   0  0
   -2.7289    5.1520    6.6143 C   0  0
   -2.1768    7.6756    5.8097 Cl  0  0
   -2.9777    8.5777    8.7084 S   0  0
   -4.4824    9.2430    8.0778 C   0  0
   -5.4812    8.6061    7.5026 N   0  0
   -6.5507    9.2559    7.0801 C   0  0
   -6.5697   10.5980    7.2657 C   0  0
   -4.9956   10.8458    8.0708 S   0  0
   -5.9744    2.2980    7.0837 C   0  0
   -6.6575    2.8234    6.3435 N   0  0
    5.2887    3.7851    5.8768 H   0  0
    5.6694    2.2254    5.1083 H   0  0
    4.0383    2.5242    5.7551 H   0  0
    7.1395    3.4982    7.3758 H   0  0
    7.2624    2.0244    8.3663 H   0  0
    7.5202    1.9385    6.6072 H   0  0
    5.1251    2.4927    9.2416 H   0  0
    4.8707    3.9081    8.1927 H   0  0
    2.7780    2.6489    7.2112 H   0  0
    3.1688    1.7454   10.0989 H   0  0
    1.0540    0.7963   10.8919 H   0  0
   -1.0920    2.1924    8.4117 H   0  0
   -3.2134   -1.1032   11.4562 H   0  0
   -2.0815   -1.2351   13.1844 H   0  0
   -1.7877   -2.5195   11.9876 H   0  0
   -0.5976   -2.2139   13.2755 H   0  0
   -6.6902    0.4673    8.8916 H   0  0
   -2.8377    2.5632    6.3231 H   0  0
   -3.8118    3.8519    9.5458 H   0  0
   -3.7234    6.2272   10.1799 H   0  0
   -2.4483    4.8482    5.6166 H   0  0
   -7.3735    8.7403    6.6072 H   0  0
   -7.3299   11.3188    7.0030 H   0  0
    5.3464    1.1783    7.2263 H   0  0
  1  2  1  0
  1 38  1  0
  1 39  1  0
  1 40  1  0
  2  3  1  0
  2  4  1  0
  2 61  1  0
  3 41  1  0
  3 42  1  0
  3 43  1  0
  4  5  1  0
  4 44  1  0
  4 45  1  0
  5  6  2  0
  5 46  1  0
  6  7  1  0
  6 47  1  0
  7  8  2  0
  7  9  1  0
  9 10  1  0
  9 48  1  0
 10 15  4  0
 10 11  4  0
 11 12  4  0
 11 49  1  0
 12 21  4  0
 12 13  4  0
 13 14  4  0
 13 18  4  0
 14 15  4  0
 14 50  1  0
 15 16  1  0
 16 17  1  0
 17 51  1  0
 17 52  1  0
 17 53  1  0
 18 19  4  0
 19 20  4  0
 19 54  1  0
 20 21  4  0
 20 36  1  0
 21 22  1  0
 22 23  1  0
 22 55  1  0
 23 28  4  0
 23 24  4  0
 24 25  4  0
 24 56  1  0
 25 26  4  0
 25 57  1  0
 26 27  4  0
 26 30  1  0
 27 28  4  0
 27 29  1  0
 28 58  1  0
 30 31  1  0
 31 35  1  0
 31 32  2  0
 32 33  1  0
 33 34  2  0
 33 59  1  0
 34 35  1  0
 34 60  1  0
 36 37  3  0
M  END
> <Name>
CHEMBL179572

$$$$
CHEMBL359630
  SciTegic01042610103D

 69 73  0  0  0  0            999 V2000
    3.4777   -2.0803    3.6640 C   0  0
    2.7071   -2.8017    2.5565 C   0  0
    1.3942   -3.1222    3.0207 O   0  0
    0.5741   -3.7698    2.1527 C   0  0
    1.0302   -4.0888    0.8946 C   0  0
    0.1880   -4.7577   -0.0066 C   0  0
   -1.1269   -5.0964    0.3953 C   0  0
   -1.5738   -4.7634    1.6820 C   0  0
   -0.7275   -4.1115    2.5509 C   0  0
   -1.1700   -3.7832    3.8377 N   0  0
   -2.4793   -3.5561    4.0627 C   0  0
   -3.2894   -3.7365    3.1735 O   0  0
   -2.9285   -3.0902    5.3833 C   0  0
   -4.2207   -2.8661    5.6053 C   0  0
   -4.6810   -2.3887    6.9585 C   0  0
   -5.4726   -1.1162    6.7997 C   0  0
   -6.7222   -0.8998    7.2530 C   0  0
   -7.0570    0.3786    6.8961 N   0  0
   -7.8969    0.8268    7.0820 H   0  0
   -5.9997    0.8992    6.2367 C   0  0
   -5.0540    0.0012    6.1873 N   0  0
   -1.9717   -5.7707   -0.5171 C   0  0
   -1.4560   -6.0718   -1.7870 C   0  0
   -0.1393   -5.6978   -2.1000 C   0  0
    0.6206   -5.0748   -1.2360 N   0  0
   -2.2638   -6.7536   -2.7530 C   0  0
   -2.9046   -7.2945   -3.5194 N   0  0
   -3.2606   -6.1213   -0.1697 N   0  0
   -3.5474   -7.4341    0.2206 C   0  0
   -2.5209   -8.2803    0.6202 C   0  0
   -2.8044   -9.5756    1.0057 C   0  0
   -4.1139  -10.0326    0.9939 C   0  0
   -5.1407   -9.1883    0.5944 C   0  0
   -4.8592   -7.8899    0.2142 C   0  0
   -6.7793   -9.7615    0.5788 Cl  0  0
   -4.3919  -11.3087    1.3734 O   0  0
   -3.2869  -12.1224    1.7720 C   0  0
   -3.7842  -13.4923    2.1551 C   0  0
   -4.1559  -13.7525    3.4609 C   0  0
   -4.6121  -15.0092    3.8124 C   0  0
   -4.6971  -16.0056    2.8579 C   0  0
   -4.3263  -15.7451    1.5519 C   0  0
   -3.8742  -14.4872    1.1996 C   0  0
    4.4792   -1.8359    3.3099 H   0  0
    2.9537   -1.1633    3.9333 H   0  0
    3.5493   -2.7279    4.5379 H   0  0
    2.6355   -2.1542    1.6826 H   0  0
    3.2312   -3.7188    2.2872 H   0  0
    2.0353   -3.8243    0.6007 H   0  0
   -2.5763   -5.0200    1.9913 H   0  0
   -0.5342   -3.7192    4.5676 H   0  0
   -2.2092   -2.9301    6.1728 H   0  0
   -4.9400   -3.0263    4.8158 H   0  0
   -5.3085   -3.1519    7.4190 H   0  0
   -3.8140   -2.2006    7.5917 H   0  0
   -7.3412   -1.6003    7.7937 H   0  0
   -5.9444    1.8951    5.8225 H   0  0
    0.2559   -5.9303   -3.0778 H   0  0
   -3.9676   -5.4577   -0.1960 H   0  0
   -1.5010   -7.9252    0.6290 H   0  0
   -2.0060  -10.2333    1.3163 H   0  0
   -5.6585   -7.2313   -0.0921 H   0  0
   -2.5828  -12.2097    0.9444 H   0  0
   -2.7883  -11.6647    2.6264 H   0  0
   -4.0894  -12.9741    4.2066 H   0  0
   -4.9017  -15.2127    4.8327 H   0  0
   -5.0529  -16.9876    3.1327 H   0  0
   -4.3924  -16.5236    0.8063 H   0  0
   -3.5880  -14.2827    0.1785 H   0  0
  1  2  1  0
  1 44  1  0
  1 45  1  0
  1 46  1  0
  2  3  1  0
  2 47  1  0
  2 48  1  0
  3  4  1  0
  4  9  4  0
  4  5  4  0
  5  6  4  0
  5 49  1  0
  6 25  4  0
  6  7  4  0
  7  8  4  0
  7 22  4  0
  8  9  4  0
  8 50  1  0
  9 10  1  0
 10 11  1  0
 10 51  1  0
 11 12  2  0
 11 13  1  0
 13 14  2  0
 13 52  1  0
 14 15  1  0
 14 53  1  0
 15 16  1  0
 15 54  1  0
 15 55  1  0
 16 21  1  0
 16 17  2  0
 17 18  1  0
 17 56  1  0
 18 19  1  0
 18 20  1  0
 20 21  2  0
 20 57  1  0
 22 23  4  0
 22 28  1  0
 23 24  4  0
 23 26  1  0
 24 25  4  0
 24 58  1  0
 26 27  3  0
 28 29  1  0
 28 59  1  0
 29 34  4  0
 29 30  4  0
 30 31  4  0
 30 60  1  0
 31 32  4  0
 31 61  1  0
 32 33  4  0
 32 36  1  0
 33 34  4  0
 33 35  1  0
 34 62  1  0
 36 37  1  0
 37 38  1  0
 37 63  1  0
 37 64  1  0
 38 43  4  0
 38 39  4  0
 39 40  4  0
 39 65  1  0
 40 41  4  0
 40 66  1  0
 41 42  4  0
 41 67  1  0
 42 43  4  0
 42 68  1  0
 43 69  1  0
M  END
> <Name>
CHEMBL359630

$$$$
CHEMBL511637
  SciTegic01042610103D

 52 56  0  0  0  0            999 V2000
   -0.1040    1.5987   -0.4773 C   0  0
    1.1085    2.2493   -0.3601 C   0  0
    2.2765    1.5147   -0.2001 C   0  0
    2.2205    0.1274   -0.1586 C   0  0
    1.0047   -0.5170   -0.2764 C   0  0
   -0.1562    0.2174   -0.4356 C   0  0
   -1.4811   -0.4891   -0.5639 C   0  0
   -1.7531   -0.7662   -1.9807 N   0  0
   -1.9552    0.4811   -2.7321 C   0  0
   -2.1757    0.1500   -4.2105 C   0  0
   -3.2867   -0.7422   -4.3334 O   0  0
   -3.1233   -1.9677   -3.6144 C   0  0
   -2.9123   -1.6579   -2.1300 C   0  0
    3.5057    2.1701   -0.0816 N   0  0
    3.5539    3.4651    0.3904 C   0  0
    2.5775    4.2076    0.8732 N   0  0
    2.7693    5.4603    1.2999 C   0  0
    4.0922    5.9499    1.2035 C   0  0
    4.9587    4.5650    0.5118 S   0  0
    4.4184    7.2248    1.6106 C   0  0
    3.4480    7.9990    2.1044 N   0  0
    2.2156    7.5339    2.1908 C   0  0
    1.8668    6.3295    1.8148 N   0  0
    5.7206    7.6924    1.5108 N   0  0
    6.0546    8.9478    2.0296 C   0  0
    5.4028    9.4301    3.1575 C   0  0
    5.7337   10.6697    3.6685 C   0  0
    6.7146   11.4325    3.0575 C   0  0
    7.3664   10.9539    1.9323 C   0  0
    7.0421    9.7111    1.4212 C   0  0
    8.5955   11.9126    1.1681 Cl  0  0
    7.0362   12.6450    3.5589 F   0  0
   -1.0130    2.1694   -0.5972 H   0  0
    1.1486    3.3280   -0.3931 H   0  0
    3.1269   -0.4467   -0.0347 H   0  0
    0.9606   -1.5956   -0.2446 H   0  0
   -1.4476   -1.4274   -0.0101 H   0  0
   -2.2710    0.1437   -0.1593 H   0  0
   -2.8286    1.0036   -2.3419 H   0  0
   -1.0746    1.1152   -2.6286 H   0  0
   -2.3827    1.0671   -4.7620 H   0  0
   -1.2815   -0.3245   -4.6145 H   0  0
   -4.0155   -2.5821   -3.7348 H   0  0
   -2.2566   -2.5037   -4.0011 H   0  0
   -2.7305   -2.5854   -1.5869 H   0  0
   -3.8011   -1.1696   -1.7302 H   0  0
    4.3245    1.7141   -0.3314 H   0  0
    1.4526    8.1832    2.5942 H   0  0
    6.3996    7.1488    1.0813 H   0  0
    4.6373    8.8360    3.6345 H   0  0
    5.2266   11.0448    4.5452 H   0  0
    7.5533    9.3361    0.5468 H   0  0
  1  6  4  0
  1  2  4  0
  1 33  1  0
  2  3  4  0
  2 34  1  0
  3  4  4  0
  3 14  1  0
  4  5  4  0
  4 35  1  0
  5  6  4  0
  5 36  1  0
  6  7  1  0
  7  8  1  0
  7 37  1  0
  7 38  1  0
  8 13  1  0
  8  9  1  0
  9 10  1  0
  9 39  1  0
  9 40  1  0
 10 11  1  0
 10 41  1  0
 10 42  1  0
 11 12  1  0
 12 13  1  0
 12 43  1  0
 12 44  1  0
 13 45  1  0
 13 46  1  0
 14 15  1  0
 14 47  1  0
 15 19  1  0
 15 16  2  0
 16 17  1  0
 17 23  4  0
 17 18  4  0
 18 19  1  0
 18 20  4  0
 20 21  4  0
 20 24  1  0
 21 22  4  0
 22 23  4  0
 22 48  1  0
 24 25  1  0
 24 49  1  0
 25 30  4  0
 25 26  4  0
 26 27  4  0
 26 50  1  0
 27 28  4  0
 27 51  1  0
 28 29  4  0
 28 32  1  0
 29 30  4  0
 29 31  1  0
 30 52  1  0
M  END
> <Name>
CHEMBL511637

$$$$
CHEMBL119982
  SciTegic01042610103D

 40 43  0  0  0  0            999 V2000
    2.7501    4.1512    0.6537 C   0  0
    4.0971    4.1101    0.9613 C   0  0
    4.8003    2.9272    0.8302 C   0  0
    4.1563    1.7853    0.3920 C   0  0
    2.8090    1.8261    0.0853 C   0  0
    2.1062    3.0093    0.2150 C   0  0
    4.9231    0.4959    0.2481 C   0  0
    4.8647   -0.2501    1.5076 N   0  0
    5.4980   -1.4687    1.6163 C   0  0
    5.4492   -2.2063    2.8186 C   0  0
    4.8772   -2.0322    4.0725 C   0  0
    5.1914   -3.1091    4.8140 N   0  0
    4.9197   -3.2500    5.7344 H   0  0
    5.9681   -3.9965    4.0604 N   0  0
    6.1509   -3.5014    2.8570 C   0  0
    6.7954   -3.9007    1.7418 N   0  0
    6.7877   -3.1500    0.6689 C   0  0
    6.1661   -1.9840    0.5912 N   0  0
    4.1221   -0.9488    4.4834 N   0  0
    3.7136   -0.8469    5.8157 C   0  0
    4.5396   -1.3065    6.8342 C   0  0
    4.1335   -1.2046    8.1500 C   0  0
    2.9057   -0.6462    8.4554 C   0  0
    2.0802   -0.1873    7.4439 C   0  0
    2.4837   -0.2808    6.1251 C   0  0
    0.5395    0.5124    7.8321 Cl  0  0
    2.1997    5.0743    0.7604 H   0  0
    4.6003    5.0023    1.3037 H   0  0
    5.8529    2.8953    1.0698 H   0  0
    2.3059    0.9340   -0.2574 H   0  0
    1.0537    3.0413   -0.0250 H   0  0
    4.4818   -0.1022   -0.5492 H   0  0
    5.9623    0.7165    0.0043 H   0  0
    4.3802    0.1140    2.2650 H   0  0
    7.3154   -3.5045   -0.2042 H   0  0
    3.8760   -0.2596    3.8466 H   0  0
    5.4983   -1.7434    6.5969 H   0  0
    4.7754   -1.5618    8.9417 H   0  0
    2.5903   -0.5684    9.4854 H   0  0
    1.8413    0.0815    5.3361 H   0  0
  1  6  4  0
  1  2  4  0
  1 27  1  0
  2  3  4  0
  2 28  1  0
  3  4  4  0
  3 29  1  0
  4  5  4  0
  4  7  1  0
  5  6  4  0
  5 30  1  0
  6 31  1  0
  7  8  1  0
  7 32  1  0
  7 33  1  0
  8  9  1  0
  8 34  1  0
  9 18  4  0
  9 10  4  0
 10 15  4  0
 10 11  2  0
 11 12  1  0
 11 19  1  0
 12 13  1  0
 12 14  1  0
 14 15  2  0
 15 16  4  0
 16 17  4  0
 17 18  4  0
 17 35  1  0
 19 20  1  0
 19 36  1  0
 20 25  4  0
 20 21  4  0
 21 22  4  0
 21 37  1  0
 22 23  4  0
 22 38  1  0
 23 24  4  0
 23 39  1  0
 24 25  4  0
 24 26  1  0
 25 40  1  0
M  END
> <Name>
CHEMBL119982

$$$$
CHEMBL368234
  SciTegic01042610103D

 69 73  0  0  0  0            999 V2000
    3.4794   -2.0770    3.6607 C   0  0
    2.7085   -2.7990    2.5536 C   0  0
    1.3961   -3.1204    3.0187 O   0  0
    0.5760   -3.7686    2.1513 C   0  0
    1.0315   -4.0873    0.8929 C   0  0
    0.1892   -4.7569   -0.0077 C   0  0
   -1.1252   -5.0964    0.3950 C   0  0
   -1.5716   -4.7637    1.6819 C   0  0
   -0.7252   -4.1112    2.5503 C   0  0
   -1.1671   -3.7832    3.8374 N   0  0
   -2.4763   -3.5562    4.0630 C   0  0
   -3.2877   -3.7367    3.1731 O   0  0
   -2.9086   -3.1075    5.3358 C   0  0
   -4.2219   -2.8798    5.5621 C   0  0
   -4.6697   -2.4151    6.8804 C   0  0
   -5.9598   -2.1515    7.2495 C   0  0
   -5.9207   -1.7486    8.5485 N   0  0
   -4.6225   -1.7721    8.9481 C   0  0
   -3.8791   -2.1741    7.9579 N   0  0
   -7.0709   -1.3589    9.3680 C   0  0
   -1.9701   -5.7714   -0.5169 C   0  0
   -1.4550   -6.0722   -1.7870 C   0  0
   -0.1388   -5.6973   -2.1009 C   0  0
    0.6213   -5.0737   -1.2374 N   0  0
   -2.2629   -6.7546   -2.7525 C   0  0
   -2.9038   -7.2960   -3.5185 N   0  0
   -3.2585   -6.1229   -0.1686 N   0  0
   -3.5443   -7.4360    0.2216 C   0  0
   -2.5170   -8.2815    0.6205 C   0  0
   -2.7993   -9.5774    1.0050 C   0  0
   -4.1084  -10.0355    0.9931 C   0  0
   -5.1361   -9.1916    0.5951 C   0  0
   -4.8557   -7.8927    0.2155 C   0  0
   -6.7743   -9.7659    0.5801 Cl  0  0
   -4.3852  -11.3123    1.3712 O   0  0
   -3.2793  -12.1255    1.7683 C   0  0
   -3.7754  -13.4964    2.1500 C   0  0
   -4.1463  -13.7585    3.4556 C   0  0
   -4.6013  -15.0160    3.8057 C   0  0
   -4.6859  -16.0112    2.8501 C   0  0
   -4.3159  -15.7488    1.5442 C   0  0
   -3.8649  -14.4901    1.1933 C   0  0
    4.4804   -1.8319    3.3059 H   0  0
    2.9548   -1.1603    3.9302 H   0  0
    3.5520   -2.7245    4.5345 H   0  0
    2.6359   -2.1515    1.6798 H   0  0
    3.2331   -3.7157    2.2841 H   0  0
    2.0362   -3.8221    0.5984 H   0  0
   -2.5736   -5.0210    1.9919 H   0  0
   -0.5310   -3.7192    4.5669 H   0  0
   -2.1890   -2.9474    6.1250 H   0  0
   -4.9415   -3.0399    4.7729 H   0  0
   -6.8393   -2.2447    6.6297 H   0  0
   -4.2649   -1.5042    9.9313 H   0  0
   -7.4685   -2.2370    9.8769 H   0  0
   -6.7574   -0.6216   10.1070 H   0  0
   -7.8425   -0.9284    8.7298 H   0  0
    0.2562   -5.9299   -3.0788 H   0  0
   -3.9660   -5.4597   -0.1943 H   0  0
   -1.4974   -7.9255    0.6296 H   0  0
   -2.0003  -10.2347    1.3148 H   0  0
   -5.6556   -7.2345   -0.0899 H   0  0
   -2.5756  -12.2112    0.9404 H   0  0
   -2.7808  -11.6685    2.6231 H   0  0
   -4.0802  -12.9809    4.2022 H   0  0
   -4.8904  -15.2209    4.8259 H   0  0
   -5.0407  -16.9939    3.1237 H   0  0
   -4.3817  -16.5265    0.7977 H   0  0
   -3.5794  -14.2841    0.1723 H   0  0
  1  2  1  0
  1 43  1  0
  1 44  1  0
  1 45  1  0
  2  3  1  0
  2 46  1  0
  2 47  1  0
  3  4  1  0
  4  9  4  0
  4  5  4  0
  5  6  4  0
  5 48  1  0
  6 24  4  0
  6  7  4  0
  7  8  4  0
  7 21  4  0
  8  9  4  0
  8 49  1  0
  9 10  1  0
 10 11  1  0
 10 50  1  0
 11 12  2  0
 11 13  1  0
 13 14  2  0
 13 51  1  0
 14 15  1  0
 14 52  1  0
 15 19  1  0
 15 16  2  0
 16 17  1  0
 16 53  1  0
 17 18  1  0
 17 20  1  0
 18 19  2  0
 18 54  1  0
 20 55  1  0
 20 56  1  0
 20 57  1  0
 21 22  4  0
 21 27  1  0
 22 23  4  0
 22 25  1  0
 23 24  4  0
 23 58  1  0
 25 26  3  0
 27 28  1  0
 27 59  1  0
 28 33  4  0
 28 29  4  0
 29 30  4  0
 29 60  1  0
 30 31  4  0
 30 61  1  0
 31 32  4  0
 31 35  1  0
 32 33  4  0
 32 34  1  0
 33 62  1  0
 35 36  1  0
 36 37  1  0
 36 63  1  0
 36 64  1  0
 37 42  4  0
 37 38  4  0
 38 39  4  0
 38 65  1  0
 39 40  4  0
 39 66  1  0
 40 41  4  0
 40 67  1  0
 41 42  4  0
 41 68  1  0
 42 69  1  0
M  END
> <Name>
CHEMBL368234

$$$$
CHEMBL599863
  SciTegic01042610103D

 50 53  0  0  0  0            999 V2000
   -0.2510    0.8271   -2.2909 C   0  0
    0.4146    0.7395   -1.0822 C   0  0
    1.6263    0.0803   -1.0058 C   0  0
    2.1748   -0.4944   -2.1430 C   0  0
    1.5049   -0.4055   -3.3544 C   0  0
    0.2937    0.2552   -3.4257 C   0  0
    3.3672   -1.1431   -2.0704 O   0  0
    3.4301   -2.2700   -1.3356 C   0  0
    2.4205   -2.7284   -0.8385 O   0  0
    4.6130   -2.8893   -1.1516 N   0  0
    4.6815   -4.1151   -0.3523 C   0  0
    6.1064   -4.6030   -0.3018 C   0  0
    6.9789   -3.9873   -0.8769 O   0  0
    6.4113   -5.7234    0.3824 N   0  0
    7.7484   -6.1085    0.5346 C   0  0
    8.7565   -5.1404    0.4984 C   0  0
   10.0654   -5.4862    0.6442 C   0  0
   10.4144   -6.8307    0.8336 C   0  0
    9.3980   -7.8165    0.8712 C   0  0
    8.0591   -7.4393    0.7247 C   0  0
    9.7815   -9.1662    1.0645 C   0  0
   11.0727   -9.4373    1.2003 N   0  0
   11.9875   -8.4820    1.1581 C   0  0
   11.6909   -7.2164    0.9819 N   0  0
    8.8373  -10.1717    1.1107 N   0  0
    9.2242  -11.4802    1.4135 C   0  0
    8.5813  -12.5537    0.8095 C   0  0
    8.9659  -13.8454    1.1101 C   0  0
    9.9896  -14.0718    2.0119 C   0  0
   10.6319  -13.0054    2.6158 C   0  0
   10.2558  -11.7100    2.3144 C   0  0
   12.0303  -13.3204    3.8491 Br  0  0
   -1.2001    1.3393   -2.3478 H   0  0
   -0.0129    1.1870   -0.1971 H   0  0
    2.1462    0.0127   -0.0615 H   0  0
    1.9301   -0.8517   -4.2412 H   0  0
   -0.2281    0.3249   -4.3687 H   0  0
    5.4189   -2.5234   -1.5484 H   0  0
    4.3319   -3.9092    0.6594 H   0  0
    4.0513   -4.8803   -0.8057 H   0  0
    5.7041   -6.2629    0.7694 H   0  0
    8.4933   -4.1032    0.3525 H   0  0
   10.8327   -4.7268    0.6135 H   0  0
    7.2765   -8.1829    0.7560 H   0  0
   13.0255   -8.7568    1.2741 H   0  0
    7.9052   -9.9703    0.9331 H   0  0
    7.7813  -12.3779    0.1056 H   0  0
    8.4663  -14.6799    0.6407 H   0  0
   10.2882  -15.0831    2.2455 H   0  0
   10.7602  -10.8777    2.7826 H   0  0
  1  6  4  0
  1  2  4  0
  1 33  1  0
  2  3  4  0
  2 34  1  0
  3  4  4  0
  3 35  1  0
  4  5  4  0
  4  7  1  0
  5  6  4  0
  5 36  1  0
  6 37  1  0
  7  8  1  0
  8  9  2  0
  8 10  1  0
 10 11  1  0
 10 38  1  0
 11 12  1  0
 11 39  1  0
 11 40  1  0
 12 13  2  0
 12 14  1  0
 14 15  1  0
 14 41  1  0
 15 20  4  0
 15 16  4  0
 16 17  4  0
 16 42  1  0
 17 18  4  0
 17 43  1  0
 18 24  4  0
 18 19  4  0
 19 20  4  0
 19 21  4  0
 20 44  1  0
 21 22  4  0
 21 25  1  0
 22 23  4  0
 23 24  4  0
 23 45  1  0
 25 26  1  0
 25 46  1  0
 26 31  4  0
 26 27  4  0
 27 28  4  0
 27 47  1  0
 28 29  4  0
 28 48  1  0
 29 30  4  0
 29 49  1  0
 30 31  4  0
 30 32  1  0
 31 50  1  0
M  END
> <Name>
CHEMBL599863

$$$$
CHEMBL422066
  SciTegic01042610103D

 38 40  0  0  0  0            999 V2000
   -0.0173    1.4248    0.0099 C   0  0
    0.0021   -0.0041    0.0020 O   0  0
    0.6062   -0.6075   -1.0564 C   0  0
    1.1618    0.1569   -2.0428 C   0  0
    1.7844   -0.4633   -3.1326 C   0  0
    1.8348   -1.8774   -3.2066 C   0  0
    1.2587   -2.6412   -2.1843 C   0  0
    0.6568   -2.0069   -1.1201 C   0  0
    0.1015   -2.7454   -0.1243 O   0  0
    0.1855   -4.1667   -0.2465 C   0  0
    2.4380   -2.4468   -4.2620 N   0  0
    2.9693   -1.7050   -5.2043 C   0  0
    2.9467   -0.3818   -5.1773 N   0  0
    2.3757    0.2816   -4.1806 C   0  0
    2.3588    1.6610   -4.1660 N   0  0
    2.9498    2.3799   -5.2132 N   0  0
    2.9326    3.7779   -5.1984 C   0  0
    2.3349    4.4549   -4.1431 C   0  0
    2.3192    5.8359   -4.1297 C   0  0
    2.8983    6.5462   -5.1675 C   0  0
    3.4948    5.8735   -6.2217 C   0  0
    3.5181    4.4914   -6.2358 C   0  0
    4.2196    6.7668   -7.5219 Cl  0  0
    2.8813    7.8970   -5.1524 F   0  0
    1.0053    1.8021    0.0021 H   0  0
   -0.5445    1.7859   -0.8732 H   0  0
   -0.5275    1.7763    0.9067 H   0  0
    1.1207    1.2344   -1.9824 H   0  0
    1.2898   -3.7199   -2.2278 H   0  0
   -0.2954   -4.6343    0.6127 H   0  0
   -0.3168   -4.4830   -1.1607 H   0  0
    1.2326   -4.4669   -0.2848 H   0  0
    3.4469   -2.1958   -6.0394 H   0  0
    1.9377    2.1331   -3.4307 H   0  0
    3.3709    1.9078   -5.9485 H   0  0
    1.8823    3.9016   -3.3335 H   0  0
    1.8544    6.3622   -3.3091 H   0  0
    3.9873    3.9669   -7.0550 H   0  0
  1  2  1  0
  1 25  1  0
  1 26  1  0
  1 27  1  0
  2  3  1  0
  3  8  4  0
  3  4  4  0
  4  5  4  0
  4 28  1  0
  5 14  4  0
  5  6  4  0
  6  7  4  0
  6 11  4  0
  7  8  4  0
  7 29  1  0
  8  9  1  0
  9 10  1  0
 10 30  1  0
 10 31  1  0
 10 32  1  0
 11 12  4  0
 12 13  4  0
 12 33  1  0
 13 14  4  0
 14 15  1  0
 15 16  1  0
 15 34  1  0
 16 17  1  0
 16 35  1  0
 17 22  4  0
 17 18  4  0
 18 19  4  0
 18 36  1  0
 19 20  4  0
 19 37  1  0
 20 21  4  0
 20 24  1  0
 21 22  4  0
 21 23  1  0
 22 38  1  0
M  END
> <Name>
CHEMBL422066

$$$$
CHEMBL599047
  SciTegic01042610103D

 48 52  0  0  0  0            999 V2000
   -2.2105   -1.1962    1.3923 C   0  0
   -1.6265    0.0218    1.0688 C   0  0
   -0.3139    0.0602    0.6442 C   0  0
    0.4016   -1.1166    0.5471 C   0  0
   -0.1733   -2.3648    0.8711 C   0  0
   -1.5161   -2.3635    1.3008 C   0  0
    0.7603   -3.4709    0.6957 C   0  0
    0.4205   -4.6173    0.9326 O   0  0
    2.0021   -3.1977    0.2672 N   0  0
    2.0532   -1.5372    0.0649 S   0  0
    3.0865   -4.1530    0.0271 C   0  0
    2.9546   -4.7241   -1.3613 C   0  0
    2.0443   -4.3681   -2.0795 O   0  0
    3.8481   -5.6304   -1.8048 N   0  0
    3.6704   -6.2346   -3.0548 C   0  0
    3.1407   -5.4917   -4.1143 C   0  0
    2.9574   -6.0534   -5.3410 C   0  0
    3.3026   -7.3957   -5.5519 C   0  0
    3.8397   -8.1539   -4.4829 C   0  0
    4.0249   -7.5562   -3.2319 C   0  0
    4.1794   -9.5072   -4.7266 C   0  0
    3.9770   -9.9946   -5.9434 N   0  0
    3.4720   -9.2473   -6.9119 C   0  0
    3.1395   -7.9895   -6.7439 N   0  0
    4.7071  -10.2970   -3.7254 N   0  0
    5.1380  -11.5951   -4.0132 C   0  0
    5.0235  -12.5950   -3.0553 C   0  0
    5.4496  -13.8767   -3.3425 C   0  0
    5.9904  -14.1661   -4.5820 C   0  0
    6.1064  -13.1729   -5.5383 C   0  0
    5.6761  -11.8895   -5.2591 C   0  0
    6.8477  -13.5735   -7.2312 Br  0  0
   -3.2368   -1.2172    1.7280 H   0  0
   -2.1974    0.9351    1.1488 H   0  0
    0.1492    1.0021    0.3900 H   0  0
   -1.9972   -3.2953    1.5592 H   0  0
    4.0460   -3.6446    0.1212 H   0  0
    3.0291   -4.9591    0.7585 H   0  0
    4.6143   -5.8640   -1.2578 H   0  0
    2.8727   -4.4573   -3.9572 H   0  0
    2.5467   -5.4666   -6.1493 H   0  0
    4.4375   -8.1248   -2.4116 H   0  0
    3.3271   -9.6932   -7.8848 H   0  0
    4.7789   -9.9512   -2.8220 H   0  0
    4.6020  -12.3699   -2.0868 H   0  0
    5.3607  -14.6541   -2.5981 H   0  0
    6.3231  -15.1693   -4.8038 H   0  0
    5.7627  -11.1154   -6.0072 H   0  0
  1  6  4  0
  1  2  4  0
  1 33  1  0
  2  3  4  0
  2 34  1  0
  3  4  4  0
  3 35  1  0
  4 10  1  0
  4  5  4  0
  5  6  4  0
  5  7  1  0
  6 36  1  0
  7  8  2  0
  7  9  1  0
  9 10  1  0
  9 11  1  0
 11 12  1  0
 11 37  1  0
 11 38  1  0
 12 13  2  0
 12 14  1  0
 14 15  1  0
 14 39  1  0
 15 20  4  0
 15 16  4  0
 16 17  4  0
 16 40  1  0
 17 18  4  0
 17 41  1  0
 18 24  4  0
 18 19  4  0
 19 20  4  0
 19 21  4  0
 20 42  1  0
 21 22  4  0
 21 25  1  0
 22 23  4  0
 23 24  4  0
 23 43  1  0
 25 26  1  0
 25 44  1  0
 26 31  4  0
 26 27  4  0
 27 28  4  0
 27 45  1  0
 28 29  4  0
 28 46  1  0
 29 30  4  0
 29 47  1  0
 30 31  4  0
 30 32  1  0
 31 48  1  0
M  END
> <Name>
CHEMBL599047

$$$$
CHEMBL328977
  SciTegic01042610103D

 50 53  0  0  0  0            999 V2000
    1.2351   -0.4718    1.6892 C   0  0
    2.4067    0.2329    1.4926 C   0  0
    2.3940    1.4048    0.7471 C   0  0
    1.2022    1.8646    0.2014 C   0  0
    0.0336    1.1551    0.4017 C   0  0
    0.0502   -0.0122    1.1451 C   0  0
   -1.5897    1.7795   -0.3405 Br  0  0
    3.5780    2.1203    0.5469 N   0  0
    4.7803    1.4504    0.4459 C   0  0
    6.0039    2.1598    0.3642 C   0  0
    6.0536    3.5574    0.3821 C   0  0
    7.2764    4.1919    0.2997 C   0  0
    8.4575    3.4501    0.1985 C   0  0
    8.4303    2.0890    0.1790 C   0  0
    7.2040    1.4147    0.2621 C   0  0
    7.1304    0.0749    0.2474 N   0  0
    5.9688   -0.5287    0.3261 C   0  0
    4.8223    0.1251    0.4282 N   0  0
    7.3348    5.5893    0.3169 N   0  0
    8.3765    6.2131    0.9020 C   0  0
    9.2201    5.5651    1.4918 O   0  0
    8.4900    7.6387    0.8294 C   0  0
    8.5830    8.8075    0.7699 C   0  0
    8.6997   10.2730    0.6952 C   0  0
    9.9112   10.7045    1.4053 N   0  0
    9.8227   10.3904    2.8331 C   0  0
   11.2224   10.4143    3.4583 C   0  0
   11.9045   12.0910    3.2712 S   0  0
   11.6502   12.4322    1.5018 C   0  0
   10.1896   12.1206    1.1555 C   0  0
    1.2455   -1.3855    2.2650 H   0  0
    3.3317   -0.1268    1.9184 H   0  0
    1.1890    2.7757   -0.3784 H   0  0
   -0.8643   -0.5653    1.3001 H   0  0
    3.5545    3.0876    0.4790 H   0  0
    5.1440    4.1345    0.4594 H   0  0
    9.4051    3.9644    0.1346 H   0  0
    9.3511    1.5301    0.0998 H   0  0
    5.9469   -1.6084    0.3114 H   0  0
    6.6256    6.1095   -0.0922 H   0  0
    8.7618   10.5798   -0.3488 H   0  0
    7.8252   10.7311    1.1572 H   0  0
    9.1921   11.1288    3.3281 H   0  0
    9.3863    9.3996    2.9597 H   0  0
   11.1564   10.1606    4.5163 H   0  0
   11.8651    9.6973    2.9476 H   0  0
   11.8606   13.4818    1.2963 H   0  0
   12.3112   11.8014    0.9075 H   0  0
   10.0108   12.3450    0.1039 H   0  0
    9.5323   12.7334    1.7725 H   0  0
  1  6  4  0
  1  2  4  0
  1 31  1  0
  2  3  4  0
  2 32  1  0
  3  4  4  0
  3  8  1  0
  4  5  4  0
  4 33  1  0
  5  6  4  0
  5  7  1  0
  6 34  1  0
  8  9  1  0
  8 35  1  0
  9 18  4  0
  9 10  4  0
 10 15  4  0
 10 11  4  0
 11 12  4  0
 11 36  1  0
 12 13  4  0
 12 19  1  0
 13 14  4  0
 13 37  1  0
 14 15  4  0
 14 38  1  0
 15 16  4  0
 16 17  4  0
 17 18  4  0
 17 39  1  0
 19 20  1  0
 19 40  1  0
 20 21  2  0
 20 22  1  0
 22 23  3  0
 23 24  1  0
 24 25  1  0
 24 41  1  0
 24 42  1  0
 25 30  1  0
 25 26  1  0
 26 27  1  0
 26 43  1  0
 26 44  1  0
 27 28  1  0
 27 45  1  0
 27 46  1  0
 28 29  1  0
 29 30  1  0
 29 47  1  0
 29 48  1  0
 30 49  1  0
 30 50  1  0
M  END
> <Name>
CHEMBL328977

$$$$
CHEMBL119977
  SciTegic01042610103D

 35 38  0  0  0  0            999 V2000
   -0.0605    0.1283    1.4258 C   0  0
    0.7826    1.1805    1.1144 C   0  0
    2.0377    0.9335    0.5985 C   0  0
    2.4572   -0.3824    0.3910 C   0  0
    1.6013   -1.4396    0.7079 C   0  0
    0.3486   -1.1779    1.2228 C   0  0
    3.7992   -0.6547   -0.1613 C   0  0
    4.0938   -1.4904   -1.2345 C   0  0
    3.3508   -2.3080   -2.1161 C   0  0
    4.0095   -2.9821   -3.0498 N   0  0
    5.3252   -2.9099   -3.1751 C   0  0
    6.0908   -2.1794   -2.4040 N   0  0
    5.5535   -1.4418   -1.4123 C   0  0
    6.0237   -0.6282   -0.4906 N   0  0
    4.9633   -0.1347    0.2780 N   0  0
    1.9794   -2.4026   -2.0085 N   0  0
    1.2747   -3.2968   -2.8197 C   0  0
    1.8580   -4.4988   -3.2009 C   0  0
    1.1597   -5.3803   -4.0023 C   0  0
   -0.1192   -5.0682   -4.4259 C   0  0
   -0.7034   -3.8718   -4.0487 C   0  0
   -0.0118   -2.9880   -3.2414 C   0  0
   -2.3086   -3.4837   -4.5837 Cl  0  0
   -1.0406    0.3274    1.8333 H   0  0
    0.4569    2.1976    1.2754 H   0  0
    2.6944    1.7556    0.3553 H   0  0
    1.9192   -2.4595    0.5497 H   0  0
   -0.3143   -1.9944    1.4683 H   0  0
    5.7942   -3.4869   -3.9583 H   0  0
    1.5036   -1.8488   -1.3700 H   0  0
    2.8568   -4.7434   -2.8710 H   0  0
    1.6132   -6.3145   -4.2990 H   0  0
   -0.6630   -5.7595   -5.0526 H   0  0
   -0.4698   -2.0566   -2.9428 H   0  0
    5.0526    0.4865    1.0177 H   0  0
  1  6  4  0
  1  2  4  0
  1 24  1  0
  2  3  4  0
  2 25  1  0
  3  4  4  0
  3 26  1  0
  4  5  4  0
  4  7  1  0
  5  6  4  0
  5 27  1  0
  6 28  1  0
  7 15  1  0
  7  8  2  0
  8 13  4  0
  8  9  4  0
  9 10  4  0
  9 16  1  0
 10 11  4  0
 11 12  4  0
 11 29  1  0
 12 13  4  0
 13 14  2  0
 14 15  1  0
 15 35  1  0
 16 17  1  0
 16 30  1  0
 17 22  4  0
 17 18  4  0
 18 19  4  0
 18 31  1  0
 19 20  4  0
 19 32  1  0
 20 21  4  0
 20 33  1  0
 21 22  4  0
 21 23  1  0
 22 34  1  0
M  END
> <Name>
CHEMBL119977

$$$$
CHEMBL300791
  SciTegic01042610103D

 57 60  0  0  0  0            999 V2000
   -1.3729    0.2541   -0.6815 C   0  0
   -1.1487   -1.1890   -0.5226 N   0  0  2  0  0  0
   -2.4406   -1.8709   -0.3694 C   0  0
   -2.2087   -3.3764   -0.2227 C   0  0
   -1.3610   -3.6264    0.9516 N   0  0
   -0.0734   -2.9294    0.8238 C   0  0
   -0.3229   -1.4276    0.6685 C   0  0
   -1.1616   -5.0668    1.1598 C   0  0
   -0.4925   -5.2982    2.5162 C   0  0
   -1.3762   -4.8842    3.5601 O   0  0
   -0.9310   -5.0238    4.8374 C   0  0
    0.3144   -5.5362    5.0664 C   0  0
    0.7739   -5.6799    6.3810 C   0  0
   -0.0535   -5.2940    7.4647 C   0  0
   -1.3265   -4.7713    7.2068 C   0  0
   -1.7530   -4.6350    5.9042 C   0  0
   -2.9857   -4.1233    5.6508 O   0  0
   -3.7759   -3.7455    6.7799 C   0  0
    0.4113   -5.4419    8.7153 N   0  0
    1.6087   -5.9343    8.9258 C   0  0
    2.4159   -6.3079    7.9457 N   0  0
    2.0554   -6.2045    6.6731 C   0  0
    2.9074   -6.5985    5.6611 N   0  0
    4.1191   -7.2252    5.9711 C   0  0
    5.2452   -6.9845    5.1943 C   0  0
    6.4407   -7.6040    5.5016 C   0  0
    6.5178   -8.4650    6.5833 C   0  0
    5.3958   -8.7073    7.3596 C   0  0
    4.1990   -8.0843    7.0590 C   0  0
    5.4951   -9.7881    8.7145 Cl  0  0
    7.6883   -9.0699    6.8820 F   0  0
   -0.4144    0.7602   -0.7965 H   0  0
   -1.9857    0.4314   -1.5653 H   0  0
   -1.8849    0.6414    0.1993 H   0  0
   -2.9478   -1.4932    0.5183 H   0  0
   -3.0574   -1.6823   -1.2481 H   0  0
   -3.1663   -3.8810   -0.0941 H   0  0
   -1.7137   -3.7569   -1.1162 H   0  0
    0.5269   -3.1080    1.7159 H   0  0
    0.4568   -3.3026   -0.0524 H   0  0
    0.6303   -0.9104    0.5593 H   0  0
   -0.8410   -1.0522    1.5510 H   0  0
   -2.1262   -5.5739    1.1393 H   0  0
   -0.5256   -5.4637    0.3685 H   0  0
   -0.2639   -6.3576    2.6325 H   0  0
    0.4296   -4.7195    2.5699 H   0  0
    0.9414   -5.8293    4.2374 H   0  0
   -1.9677   -4.4731    8.0231 H   0  0
   -3.9449   -4.6166    7.4130 H   0  0
   -3.2518   -2.9783    7.3499 H   0  0
   -4.7338   -3.3535    6.4382 H   0  0
    1.9514   -6.0393    9.9446 H   0  0
    2.6659   -6.4408    4.7349 H   0  0
    5.1859   -6.3134    4.3502 H   0  0
    7.3161   -7.4171    4.8974 H   0  0
    3.3257   -8.2694    7.6669 H   0  0
   -0.6743   -1.5472   -1.3378 H   0  0
  1  2  1  0
  1 32  1  0
  1 33  1  0
  1 34  1  0
  2  7  1  0
  2  3  1  0
  2 57  1  0
  3  4  1  0
  3 35  1  0
  3 36  1  0
  4  5  1  0
  4 37  1  0
  4 38  1  0
  5  6  1  0
  5  8  1  0
  6  7  1  0
  6 39  1  0
  6 40  1  0
  7 41  1  0
  7 42  1  0
  8  9  1  0
  8 43  1  0
  8 44  1  0
  9 10  1  0
  9 45  1  0
  9 46  1  0
 10 11  1  0
 11 16  4  0
 11 12  4  0
 12 13  4  0
 12 47  1  0
 13 22  4  0
 13 14  4  0
 14 15  4  0
 14 19  4  0
 15 16  4  0
 15 48  1  0
 16 17  1  0
 17 18  1  0
 18 49  1  0
 18 50  1  0
 18 51  1  0
 19 20  4  0
 20 21  4  0
 20 52  1  0
 21 22  4  0
 22 23  1  0
 23 24  1  0
 23 53  1  0
 24 29  4  0
 24 25  4  0
 25 26  4  0
 25 54  1  0
 26 27  4  0
 26 55  1  0
 27 28  4  0
 27 31  1  0
 28 29  4  0
 28 30  1  0
 29 56  1  0
M  END
> <Name>
CHEMBL300791

$$$$
CHEMBL57758
  SciTegic01042610103D

 52 55  0  0  0  0            999 V2000
    0.7892    1.4333    0.3759 C   0  0
    0.8190    0.0047    0.3715 O   0  0
    1.2248   -0.6003   -0.7752 C   0  0
    1.5879    0.1681   -1.8591 C   0  0
    2.0058   -0.4580   -3.0396 C   0  0
    2.0484   -1.8731   -3.1002 C   0  0
    1.6742   -2.6311   -1.9843 C   0  0
    1.2750   -1.9996   -0.8406 C   0  0
    0.9173   -2.7367    0.2447 O   0  0
    0.9897   -4.1581    0.1160 C   0  0
    0.5525   -4.8119    1.4284 C   0  0
   -0.8651   -4.5156    1.6746 N   0  0
   -1.7156   -5.2195    0.6809 C   0  0
   -3.0973   -5.2835    1.3789 C   0  0
   -2.7258   -5.5305    2.8591 C   0  0
   -1.2732   -5.0381    2.9967 C   0  0
    2.4755   -2.4772   -4.3067 C   0  0
    2.8136   -1.6881   -5.3182 N   0  0
    2.7578   -0.3698   -5.2155 C   0  0
    2.3703    0.2450   -4.1235 N   0  0
    2.5389   -3.8508   -4.4276 N   0  0
    3.0771   -4.4271   -5.5832 C   0  0
    4.1331   -3.8096   -6.2412 C   0  0
    4.6637   -4.3800   -7.3816 C   0  0
    4.1439   -5.5670   -7.8696 C   0  0
    3.0905   -6.1851   -7.2152 C   0  0
    2.5602   -5.6201   -6.0706 C   0  0
    2.4409   -7.6732   -7.8294 Cl  0  0
    4.6643   -6.1229   -8.9856 F   0  0
    1.7900    1.8182    0.1801 H   0  0
    0.1068    1.7849   -0.3981 H   0  0
    0.4479    1.7867    1.3489 H   0  0
    1.5502    1.2458   -1.7990 H   0  0
    1.7052   -3.7098   -2.0260 H   0  0
    0.3313   -4.4840   -0.6892 H   0  0
    2.0147   -4.4506   -0.1118 H   0  0
    0.6918   -5.8908    1.3609 H   0  0
    1.1536   -4.4186    2.2482 H   0  0
   -1.7784   -4.6481   -0.2452 H   0  0
   -1.3342   -6.2226    0.4900 H   0  0
   -3.6300   -4.3391    1.2672 H   0  0
   -3.6896   -6.1103    0.9867 H   0  0
   -3.3828   -4.9587    3.5145 H   0  0
   -2.7888   -6.5933    3.0927 H   0  0
   -0.6260   -5.8667    3.2844 H   0  0
   -1.2191   -4.2449    3.7423 H   0  0
    3.0443    0.2266   -6.0692 H   0  0
    2.2103   -4.4164   -3.7114 H   0  0
    4.5389   -2.8836   -5.8614 H   0  0
    5.4845   -3.8997   -7.8934 H   0  0
    1.7419   -6.1039   -5.5581 H   0  0
   -1.0261   -3.5206    1.6289 H   0  0
  1  2  1  0
  1 30  1  0
  1 31  1  0
  1 32  1  0
  2  3  1  0
  3  8  4  0
  3  4  4  0
  4  5  4  0
  4 33  1  0
  5 20  4  0
  5  6  4  0
  6  7  4  0
  6 17  4  0
  7  8  4  0
  7 34  1  0
  8  9  1  0
  9 10  1  0
 10 11  1  0
 10 35  1  0
 10 36  1  0
 11 12  1  0
 11 37  1  0
 11 38  1  0
 12 16  1  0
 12 13  1  0
 12 52  1  0
 13 14  1  0
 13 39  1  0
 13 40  1  0
 14 15  1  0
 14 41  1  0
 14 42  1  0
 15 16  1  0
 15 43  1  0
 15 44  1  0
 16 45  1  0
 16 46  1  0
 17 18  4  0
 17 21  1  0
 18 19  4  0
 19 20  4  0
 19 47  1  0
 21 22  1  0
 21 48  1  0
 22 27  4  0
 22 23  4  0
 23 24  4  0
 23 49  1  0
 24 25  4  0
 24 50  1  0
 25 26  4  0
 25 29  1  0
 26 27  4  0
 26 28  1  0
 27 51  1  0
M  END
> <Name>
CHEMBL57758

$$$$
CHEMBL371863
  SciTegic01042610103D

 44 46  0  0  0  0            999 V2000
    0.9674   -1.1485   -0.2711 C   0  0
   -0.0009    0.0041    0.0028 C   0  0
   -1.4142   -0.5190    0.0134 C   0  0
   -2.1613   -0.9009    1.1472 C   0  0
   -3.4047   -1.3172    0.6975 C   0  0
   -3.4399   -1.2049   -0.6375 N   0  0
   -2.2266   -0.7103   -1.0807 C   0  0
   -2.0477   -0.5074   -2.4723 C   0  0
   -3.0398   -0.7921   -3.2982 N   0  0
   -4.2037   -1.2651   -2.8550 C   0  0
   -4.4325   -1.4815   -1.5896 N   0  0
   -0.8535   -0.0185   -2.9583 N   0  0
   -0.7157    0.2947   -4.3828 C   0  0
    0.6752    0.8084   -4.6520 C   0  0
    0.9421    2.1617   -4.5601 C   0  0
    2.2180    2.6329   -4.8070 C   0  0
    3.2271    1.7508   -5.1453 C   0  0
    2.9605    0.3975   -5.2363 C   0  0
    1.6856   -0.0742   -4.9852 C   0  0
   -1.7050   -0.8649    2.5476 C   0  0
   -0.5841   -0.4771    2.8117 O   0  0
   -2.5308   -1.2621    3.5357 O   0  0
   -2.0226   -1.2007    4.8699 C   0  0
   -3.0946   -1.6876    5.8469 C   0  0
    1.9896   -0.7702   -0.2787 H   0  0
    0.8648   -1.9025    0.5093 H   0  0
    0.7375   -1.5938   -1.2390 H   0  0
    0.2289    0.4494    0.9708 H   0  0
    0.1017    0.7580   -0.7776 H   0  0
   -4.2119   -1.6737    1.3203 H   0  0
   -4.9837   -1.4822   -3.5697 H   0  0
   -0.1046    0.1181   -2.3571 H   0  0
   -0.8906   -0.6059   -4.9714 H   0  0
   -1.4443    1.0567   -4.6595 H   0  0
    0.1536    2.8508   -4.2958 H   0  0
    2.4263    3.6902   -4.7359 H   0  0
    4.2238    2.1191   -5.3389 H   0  0
    3.7488   -0.2916   -5.5010 H   0  0
    1.4781   -1.1320   -5.0527 H   0  0
   -1.1405   -1.8358    4.9523 H   0  0
   -1.7532   -0.1720    5.1091 H   0  0
   -3.9767   -1.0525    5.7645 H   0  0
   -3.3640   -2.7163    5.6077 H   0  0
   -2.7070   -1.6408    6.8646 H   0  0
  1  2  1  0
  1 25  1  0
  1 26  1  0
  1 27  1  0
  2  3  1  0
  2 28  1  0
  2 29  1  0
  3  7  2  0
  3  4  1  0
  4  5  2  0
  4 20  1  0
  5  6  1  0
  5 30  1  0
  6 11  1  0
  6  7  1  0
  7  8  1  0
  8  9  2  0
  8 12  1  0
  9 10  1  0
 10 11  2  0
 10 31  1  0
 12 13  1  0
 12 32  1  0
 13 14  1  0
 13 33  1  0
 13 34  1  0
 14 19  4  0
 14 15  4  0
 15 16  4  0
 15 35  1  0
 16 17  4  0
 16 36  1  0
 17 18  4  0
 17 37  1  0
 18 19  4  0
 18 38  1  0
 19 39  1  0
 20 21  2  0
 20 22  1  0
 22 23  1  0
 23 24  1  0
 23 40  1  0
 23 41  1  0
 24 42  1  0
 24 43  1  0
 24 44  1  0
M  END
> <Name>
CHEMBL371863

$$$$
CHEMBL485320
  SciTegic01042610103D

 44 47  0  0  0  0            999 V2000
   -0.1665    1.2709    1.8013 C   0  0
    0.9975    2.0042    1.6669 C   0  0
    2.1925    1.3618    1.4017 C   0  0
    2.2234   -0.0140    1.2713 C   0  0
    1.0595   -0.7475    1.4066 C   0  0
   -0.1356   -0.1049    1.6705 C   0  0
    3.5259   -0.7143    0.9812 C   0  0
    4.2129   -1.0799    2.2986 C   0  0
    5.5154   -1.7802    2.0084 C   0  0
    5.6479   -3.0934    1.7631 C   0  0
    7.0716   -3.3399    1.5362 C   0  0
    7.7121   -2.0944    1.6698 C   0  0
    6.7435   -1.1701    1.9495 N   0  0
    6.9016   -0.2233    2.0886 H   0  0
    9.0332   -2.0355    1.5088 N   0  0
    9.7276   -3.1256    1.2292 C   0  0
    9.1603   -4.3177    1.0950 N   0  0
    7.8478   -4.4708    1.2393 C   0  0
    7.2603   -5.7160    1.0987 N   0  0
    8.0589   -6.8498    0.9234 C   0  0
    9.2918   -6.9377    1.5577 C   0  0
   10.0784   -8.0591    1.3830 C   0  0
    9.6407   -9.0943    0.5773 C   0  0
    8.4134   -9.0104   -0.0560 C   0  0
    7.6189   -7.8931    0.1193 C   0  0
    7.8194  -10.4287   -1.1568 Br  0  0
   11.0994   -3.0190    1.0699 N   0  0
   -1.0993    1.7724    2.0130 H   0  0
    0.9734    3.0791    1.7688 H   0  0
    3.1018    1.9348    1.2960 H   0  0
    1.0836   -1.8224    1.3044 H   0  0
   -1.0450   -0.6779    1.7758 H   0  0
    3.3312   -1.6214    0.4091 H   0  0
    4.1733   -0.0533    0.4051 H   0  0
    4.4076   -0.1728    2.8707 H   0  0
    3.5654   -1.7409    2.8747 H   0  0
    4.8556   -3.8269    1.7385 H   0  0
    6.2944   -5.8020    1.1219 H   0  0
    9.6349   -6.1295    2.1866 H   0  0
   11.0369   -8.1277    1.8760 H   0  0
   10.2582   -9.9700    0.4419 H   0  0
    6.6590   -7.8298   -0.3715 H   0  0
   11.5329   -2.1564    1.1637 H   0  0
   11.6265   -3.8070    0.8646 H   0  0
  1  6  4  0
  1  2  4  0
  1 28  1  0
  2  3  4  0
  2 29  1  0
  3  4  4  0
  3 30  1  0
  4  5  4  0
  4  7  1  0
  5  6  4  0
  5 31  1  0
  6 32  1  0
  7  8  1  0
  7 33  1  0
  7 34  1  0
  8  9  1  0
  8 35  1  0
  8 36  1  0
  9 13  1  0
  9 10  2  0
 10 11  1  0
 10 37  1  0
 11 18  4  0
 11 12  4  0
 12 13  1  0
 12 15  4  0
 13 14  1  0
 15 16  4  0
 16 17  4  0
 16 27  1  0
 17 18  4  0
 18 19  1  0
 19 20  1  0
 19 38  1  0
 20 25  4  0
 20 21  4  0
 21 22  4  0
 21 39  1  0
 22 23  4  0
 22 40  1  0
 23 24  4  0
 23 41  1  0
 24 25  4  0
 24 26  1  0
 25 42  1  0
 27 43  1  0
 27 44  1  0
M  END
> <Name>
CHEMBL485320

$$$$
CHEMBL127223
  SciTegic01042610103D

 48 51  0  0  0  0            999 V2000
    1.0011    1.4250    0.6310 C   0  0
    0.7841   -0.0818    0.4780 C   0  0
    1.4458   -0.5409   -0.7024 O   0  0
    1.3511   -1.8673   -0.9869 C   0  0
    0.6401   -2.6870   -0.1570 C   0  0
    0.5419   -4.0526   -0.4490 C   0  0
    1.1791   -4.5763   -1.6013 C   0  0
    1.9026   -3.7179   -2.4379 C   0  0
    1.9793   -2.3772   -2.1316 C   0  0
    2.6760   -1.5410   -2.9446 O   0  0
    3.2936   -2.1205   -4.0955 C   0  0
    4.0267   -1.0328   -4.8831 C   0  0
    1.0689   -5.8891   -1.8585 N   0  0
    0.3838   -6.6687   -1.0563 C   0  0
   -0.2279   -6.2244    0.0301 N   0  0
   -0.1823   -4.9448    0.3770 C   0  0
   -0.8244   -4.4954    1.5136 N   0  0
   -1.4324   -5.4084    2.3801 C   0  0
   -2.6144   -5.0701    3.0289 C   0  0
   -3.2182   -5.9700    3.8861 C   0  0
   -2.6513   -7.2102    4.1033 C   0  0
   -1.4665   -7.5582    3.4567 C   0  0
   -0.8598   -6.6541    2.5884 C   0  0
   -0.8561   -8.8903    3.6889 C   0  0
   -1.4784   -9.8458    4.4469 C   0  0
   -0.2853  -11.1707    4.3511 S   0  0
    0.8511  -10.3943    3.3832 C   0  0
    0.3177   -9.2200    3.1690 N   0  0
    2.0684    1.6324    0.7087 H   0  0
    0.5932    1.9409   -0.2383 H   0  0
    0.4964    1.7753    1.5313 H   0  0
    1.1921   -0.5977    1.3473 H   0  0
   -0.2831   -0.2891    0.4003 H   0  0
    0.1565   -2.2835    0.7203 H   0  0
    2.3932   -4.1034   -3.3195 H   0  0
    4.0056   -2.8833   -3.7805 H   0  0
    2.5304   -2.5748   -4.7274 H   0  0
    3.3146   -0.2700   -5.1982 H   0  0
    4.7899   -0.5786   -4.2512 H   0  0
    4.4978   -1.4749   -5.7610 H   0  0
    0.3155   -7.7202   -1.2931 H   0  0
   -0.8536   -3.5461    1.7108 H   0  0
   -3.0617   -4.1012    2.8628 H   0  0
   -4.1363   -5.7024    4.3881 H   0  0
   -3.1258   -7.9106    4.7745 H   0  0
    0.0561   -6.9207    2.0820 H   0  0
   -2.4277   -9.8084    4.9605 H   0  0
    1.7945  -10.7762    3.0218 H   0  0
  1  2  1  0
  1 29  1  0
  1 30  1  0
  1 31  1  0
  2  3  1  0
  2 32  1  0
  2 33  1  0
  3  4  1  0
  4  9  4  0
  4  5  4  0
  5  6  4  0
  5 34  1  0
  6 16  4  0
  6  7  4  0
  7  8  4  0
  7 13  4  0
  8  9  4  0
  8 35  1  0
  9 10  1  0
 10 11  1  0
 11 12  1  0
 11 36  1  0
 11 37  1  0
 12 38  1  0
 12 39  1  0
 12 40  1  0
 13 14  4  0
 14 15  4  0
 14 41  1  0
 15 16  4  0
 16 17  1  0
 17 18  1  0
 17 42  1  0
 18 23  4  0
 18 19  4  0
 19 20  4  0
 19 43  1  0
 20 21  4  0
 20 44  1  0
 21 22  4  0
 21 45  1  0
 22 23  4  0
 22 24  1  0
 23 46  1  0
 24 28  1  0
 24 25  2  0
 25 26  1  0
 25 47  1  0
 26 27  1  0
 27 28  2  0
 27 48  1  0
M  END
> <Name>
CHEMBL127223

$$$$
CHEMBL251124
  SciTegic01042610103D

 50 53  0  0  0  0            999 V2000
   -0.3089    0.8600    3.1094 C   0  0
   -0.7099    0.0943    1.8469 C   0  0
    0.4498   -0.5033    1.2638 O   0  0
    0.5753   -1.8518    1.3829 C   0  0
    0.1632   -2.6626    0.3614 C   0  0
    0.2928   -4.0472    0.4842 C   0  0
    0.8488   -4.6077    1.6620 C   0  0
    1.2643   -3.7596    2.6957 C   0  0
    1.1311   -2.3963    2.5490 C   0  0
    1.5379   -1.5704    3.5481 O   0  0
    2.0960   -2.1851    4.7111 C   0  0
    2.4930   -1.1041    5.7185 C   0  0
    0.9597   -5.9417    1.7479 N   0  0
    0.5654   -6.7201    0.7690 C   0  0
    0.0393   -6.2747   -0.3570 N   0  0
   -0.1293   -4.9674   -0.5743 C   0  0
   -0.7008   -4.4842   -1.7952 C   0  0
   -1.1693   -4.0882   -2.7962 C   0  0
   -1.7408   -3.6050   -4.0171 C   0  0
   -1.9584   -2.2705   -4.3559 C   0  0
   -2.5353   -2.2670   -5.6436 C   0  0
   -2.6528   -3.5499   -6.0472 C   0  0
   -2.1711   -4.3716   -5.0749 N   0  0
   -2.1382   -5.3400   -5.1199 H   0  0
   -1.6452   -1.0857   -3.5250 C   0  0
   -0.3475   -0.8835   -3.0544 C   0  0
   -0.0619    0.2227   -2.2809 C   0  0
   -1.0593    1.1303   -1.9715 C   0  0
   -2.3482    0.9354   -2.4352 C   0  0
   -2.6453   -0.1639   -3.2143 C   0  0
    0.4952    1.5565    2.8719 H   0  0
   -1.1688    1.4130    3.4873 H   0  0
    0.0324    0.1560    3.8682 H   0  0
   -1.4280   -0.6835    2.1064 H   0  0
   -1.1619    0.7826    1.1327 H   0  0
   -0.2603   -2.2341   -0.5350 H   0  0
    1.6897   -4.1708    3.5992 H   0  0
    1.3573   -2.8479    5.1617 H   0  0
    2.9776   -2.7611    4.4301 H   0  0
    2.9187   -1.5729    6.6057 H   0  0
    3.2317   -0.4412    5.2680 H   0  0
    1.6114   -0.5280    5.9996 H   0  0
    0.6778   -7.7873    0.8909 H   0  0
   -2.8307   -1.3936   -6.2061 H   0  0
   -3.0610   -3.8730   -6.9934 H   0  0
    0.4318   -1.5916   -3.2946 H   0  0
    0.9423    0.3804   -1.9160 H   0  0
   -0.8309    1.9943   -1.3651 H   0  0
   -3.1225    1.6472   -2.1900 H   0  0
   -3.6507   -0.3126   -3.5794 H   0  0
  1  2  1  0
  1 31  1  0
  1 32  1  0
  1 33  1  0
  2  3  1  0
  2 34  1  0
  2 35  1  0
  3  4  1  0
  4  9  4  0
  4  5  4  0
  5  6  4  0
  5 36  1  0
  6 16  4  0
  6  7  4  0
  7  8  4  0
  7 13  4  0
  8  9  4  0
  8 37  1  0
  9 10  1  0
 10 11  1  0
 11 12  1  0
 11 38  1  0
 11 39  1  0
 12 40  1  0
 12 41  1  0
 12 42  1  0
 13 14  4  0
 14 15  4  0
 14 43  1  0
 15 16  4  0
 16 17  1  0
 17 18  3  0
 18 19  1  0
 19 23  1  0
 19 20  2  0
 20 21  1  0
 20 25  1  0
 21 22  2  0
 21 44  1  0
 22 23  1  0
 22 45  1  0
 23 24  1  0
 25 30  4  0
 25 26  4  0
 26 27  4  0
 26 46  1  0
 27 28  4  0
 27 47  1  0
 28 29  4  0
 28 48  1  0
 29 30  4  0
 29 49  1  0
 30 50  1  0
M  END
> <Name>
CHEMBL251124

$$$$
CHEMBL179633
  SciTegic01042610103D

 68 71  0  0  0  0            999 V2000
   -9.5437   -3.4649   -2.8023 C   0  0
   -8.3197   -3.9823   -2.1762 N   0  0
   -8.4875   -4.0036   -0.7169 C   0  0
   -8.0612   -5.3453   -2.6593 C   0  0
   -6.7428   -5.8301   -2.1134 C   0  0
   -6.6842   -6.9709   -1.4319 C   0  0
   -5.3976   -7.4439   -0.8992 C   0  0
   -4.3871   -6.7920   -1.0818 O   0  0
   -5.3383   -8.5998   -0.2086 N   0  0
   -4.0990   -9.1129    0.1921 C   0  0
   -2.9608   -8.7748   -0.5052 C   0  0
   -1.7203   -9.2893   -0.1020 C   0  0
   -1.6428  -10.1524    1.0179 C   0  0
   -2.8164  -10.4829    1.7124 C   0  0
   -4.0238   -9.9638    1.3056 C   0  0
   -5.1557  -10.2826    1.9855 O   0  0
   -5.0138  -11.1531    3.1098 C   0  0
   -0.4584  -10.6467    1.4084 N   0  0
    0.6542  -10.3580    0.7832 C   0  0
    0.6710   -9.5105   -0.3362 C   0  0
   -0.5340   -8.9596   -0.7983 C   0  0
   -0.5608   -8.1228   -1.8954 N   0  0
   -0.2458   -8.6224   -3.1645 C   0  0
   -0.5755   -9.9300   -3.4976 C   0  0
   -0.2646  -10.4234   -4.7491 C   0  0
    0.3778   -9.6126   -5.6754 C   0  0
    0.7076   -8.3042   -5.3429 C   0  0
    0.3913   -7.8089   -4.0925 C   0  0
    1.5113   -7.2904   -6.5005 Cl  0  0
    0.6938  -10.1134   -6.9440 N   0  0
    0.3466  -11.4929   -7.2943 C   0  0
    0.7922  -11.7803   -8.7049 C   0  0
   -0.0583  -11.5379   -9.7731 C   0  0
    0.3941  -11.8174  -11.0533 C   0  0
    1.6688  -12.3249  -11.2214 C   0  0
    2.4502  -12.5434  -10.1820 N   0  0
    2.0554  -12.2835   -8.9508 C   0  0
    1.9046   -9.2120   -0.9994 C   0  0
    2.8831   -8.9751   -1.5256 N   0  0
   -9.7356   -2.4535   -2.4438 H   0  0
   -9.4193   -3.4491   -3.8850 H   0  0
  -10.3846   -4.1080   -2.5426 H   0  0
   -7.5793   -4.3876   -0.2524 H   0  0
   -8.6794   -2.9923   -0.3585 H   0  0
   -9.3283   -4.6468   -0.4572 H   0  0
   -8.8591   -6.0074   -2.3231 H   0  0
   -8.0249   -5.3439   -3.7487 H   0  0
   -5.8456   -5.2513   -2.2756 H   0  0
   -7.5814   -7.5497   -1.2697 H   0  0
   -6.1543   -9.0762    0.0107 H   0  0
   -3.0233   -8.1166   -1.3592 H   0  0
   -2.7713  -11.1404    2.5680 H   0  0
   -5.9908  -11.3261    3.5610 H   0  0
   -4.5913  -12.1031    2.7826 H   0  0
   -4.3510  -10.6941    3.8433 H   0  0
    1.5825  -10.7817    1.1371 H   0  0
   -0.7978   -7.1885   -1.7871 H   0  0
   -1.0749  -10.5610   -2.7773 H   0  0
   -0.5209  -11.4402   -5.0075 H   0  0
    0.6434   -6.7908   -3.8352 H   0  0
    1.1426   -9.5470   -7.5911 H   0  0
    0.8452  -12.1783   -6.6089 H   0  0
   -0.7327  -11.6260   -7.2200 H   0  0
   -1.0496  -11.1410   -9.6114 H   0  0
   -0.2415  -11.6412  -11.9085 H   0  0
    2.0288  -12.5453  -12.2155 H   0  0
    2.7255  -12.4706   -8.1247 H   0  0
   -7.5414   -3.3870   -2.4166 H   0  0
  1  2  1  0
  1 40  1  0
  1 41  1  0
  1 42  1  0
  2  3  1  0
  2  4  1  0
  2 68  1  0
  3 43  1  0
  3 44  1  0
  3 45  1  0
  4  5  1  0
  4 46  1  0
  4 47  1  0
  5  6  2  0
  5 48  1  0
  6  7  1  0
  6 49  1  0
  7  8  2  0
  7  9  1  0
  9 10  1  0
  9 50  1  0
 10 15  4  0
 10 11  4  0
 11 12  4  0
 11 51  1  0
 12 21  4  0
 12 13  4  0
 13 14  4  0
 13 18  4  0
 14 15  4  0
 14 52  1  0
 15 16  1  0
 16 17  1  0
 17 53  1  0
 17 54  1  0
 17 55  1  0
 18 19  4  0
 19 20  4  0
 19 56  1  0
 20 21  4  0
 20 38  1  0
 21 22  1  0
 22 23  1  0
 22 57  1  0
 23 28  4  0
 23 24  4  0
 24 25  4  0
 24 58  1  0
 25 26  4  0
 25 59  1  0
 26 27  4  0
 26 30  1  0
 27 28  4  0
 27 29  1  0
 28 60  1  0
 30 31  1  0
 30 61  1  0
 31 32  1  0
 31 62  1  0
 31 63  1  0
 32 37  4  0
 32 33  4  0
 33 34  4  0
 33 64  1  0
 34 35  4  0
 34 65  1  0
 35 36  4  0
 35 66  1  0
 36 37  4  0
 37 67  1  0
 38 39  3  0
M  END
> <Name>
CHEMBL179633

$$$$
CHEMBL176199
  SciTegic01042610103D

 68 71  0  0  0  0            999 V2000
    1.4879   -2.0606   -4.8316 C   0  0
    0.9322   -2.7919   -3.6080 C   0  0
    1.9983   -3.0825   -2.7019 O   0  0
    1.6729   -3.7345   -1.5555 C   0  0
    0.3636   -4.0856   -1.3204 C   0  0
    0.0211   -4.7592   -0.1381 C   0  0
    1.0346   -5.0693    0.8009 C   0  0
    2.3636   -4.7037    0.5436 C   0  0
    2.6766   -4.0479   -0.6261 C   0  0
    4.0037   -3.6871   -0.8874 N   0  0
    4.8471   -3.4352    0.1332 C   0  0
    4.4865   -3.6207    1.2800 O   0  0
    6.2032   -2.9360   -0.1396 C   0  0
    7.0356   -2.6874    0.8677 C   0  0
    8.4253   -2.1759    0.5882 C   0  0
    8.6457   -0.9270    1.3295 N   0  0
    8.6158   -1.2021    2.7722 C   0  0
    9.9534   -0.3656    0.9651 C   0  0
    0.6837   -5.7485    1.9911 C   0  0
   -0.6659   -6.0829    2.1804 C   0  0
   -1.6043   -5.7358    1.1953 C   0  0
   -1.2516   -5.1076    0.1030 N   0  0
   -1.0815   -6.7712    3.3654 C   0  0
   -1.4113   -7.3173    4.3054 N   0  0
    1.6374   -6.0720    2.9348 N   0  0
    2.1517   -7.3721    2.9927 C   0  0
    2.0058   -8.2260    1.9069 C   0  0
    2.5138   -9.5088    1.9642 C   0  0
    3.1694   -9.9454    3.1058 C   0  0
    3.3155   -9.0934    4.1918 C   0  0
    2.8130   -7.8074    4.1336 C   0  0
    4.1352   -9.6412    5.6207 Cl  0  0
    3.6690  -11.2092    3.1613 O   0  0
    3.4823  -12.0318    2.0079 C   0  0
    4.0970  -13.3860    2.2518 C   0  0
    3.4690  -14.4510    2.7819 C   0  0
    4.4136  -15.5019    2.8289 C   0  0
    5.5623  -15.0162    2.3249 C   0  0
    5.3630  -13.7359    1.9716 O   0  0
    2.2250   -2.6916   -5.3283 H   0  0
    0.6747   -1.8389   -5.5228 H   0  0
    1.9600   -1.1303   -4.5156 H   0  0
    0.1951   -2.1609   -3.1113 H   0  0
    0.4602   -3.7222   -3.9240 H   0  0
   -0.3997   -3.8428   -2.0448 H   0  0
    3.1388   -4.9385    1.2580 H   0  0
    4.3163   -3.6184   -1.8031 H   0  0
    6.5234   -2.7713   -1.1578 H   0  0
    6.7155   -2.8521    1.8860 H   0  0
    9.1566   -2.9198    0.9040 H   0  0
    8.5355   -1.9887   -0.4799 H   0  0
    7.6455   -1.6187    3.0426 H   0  0
    9.4003   -1.9164    3.0223 H   0  0
    8.7794   -0.2754    3.3223 H   0  0
    9.9756   -0.1614   -0.1053 H   0  0
   10.1170    0.5611    1.5152 H   0  0
   10.7379   -1.0798    1.2152 H   0  0
   -2.6426   -5.9939    1.3426 H   0  0
    1.9512   -5.3981    3.5580 H   0  0
    1.4948   -7.8867    1.0180 H   0  0
    2.4003  -10.1725    1.1198 H   0  0
    2.9307   -7.1426    4.9766 H   0  0
    2.4162  -12.1467    1.8122 H   0  0
    3.9614  -11.5651    1.1473 H   0  0
    2.4408  -14.4947    3.1092 H   0  0
    4.2454  -16.5024    3.1990 H   0  0
    6.4869  -15.5642    2.2185 H   0  0
    7.9195   -0.2658    1.0981 H   0  0
  1  2  1  0
  1 40  1  0
  1 41  1  0
  1 42  1  0
  2  3  1  0
  2 43  1  0
  2 44  1  0
  3  4  1  0
  4  9  4  0
  4  5  4  0
  5  6  4  0
  5 45  1  0
  6 22  4  0
  6  7  4  0
  7  8  4  0
  7 19  4  0
  8  9  4  0
  8 46  1  0
  9 10  1  0
 10 11  1  0
 10 47  1  0
 11 12  2  0
 11 13  1  0
 13 14  2  0
 13 48  1  0
 14 15  1  0
 14 49  1  0
 15 16  1  0
 15 50  1  0
 15 51  1  0
 16 17  1  0
 16 18  1  0
 16 68  1  0
 17 52  1  0
 17 53  1  0
 17 54  1  0
 18 55  1  0
 18 56  1  0
 18 57  1  0
 19 20  4  0
 19 25  1  0
 20 21  4  0
 20 23  1  0
 21 22  4  0
 21 58  1  0
 23 24  3  0
 25 26  1  0
 25 59  1  0
 26 31  4  0
 26 27  4  0
 27 28  4  0
 27 60  1  0
 28 29  4  0
 28 61  1  0
 29 30  4  0
 29 33  1  0
 30 31  4  0
 30 32  1  0
 31 62  1  0
 33 34  1  0
 34 35  1  0
 34 63  1  0
 34 64  1  0
 35 39  1  0
 35 36  2  0
 36 37  1  0
 36 65  1  0
 37 38  2  0
 37 66  1  0
 38 39  1  0
 38 67  1  0
M  END
> <Name>
CHEMBL176199

$$$$
CHEMBL175840
  SciTegic01042610103D

 71 74  0  0  0  0            999 V2000
    3.4777   -2.0803    3.6640 C   0  0
    2.7071   -2.8017    2.5565 C   0  0
    1.3942   -3.1222    3.0207 O   0  0
    0.5741   -3.7698    2.1527 C   0  0
    1.0302   -4.0888    0.8946 C   0  0
    0.1880   -4.7577   -0.0066 C   0  0
   -1.1269   -5.0964    0.3953 C   0  0
   -1.5738   -4.7634    1.6820 C   0  0
   -0.7275   -4.1115    2.5509 C   0  0
   -1.1700   -3.7832    3.8377 N   0  0
   -2.4793   -3.5561    4.0627 C   0  0
   -3.2894   -3.7365    3.1735 O   0  0
   -2.9285   -3.0902    5.3833 C   0  0
   -4.2207   -2.8661    5.6053 C   0  0
   -4.6810   -2.3887    6.9585 C   0  0
   -5.4527   -1.1483    6.8037 N   0  0
   -6.6829   -1.4276    6.0510 C   0  0
   -5.7993   -0.6186    8.1293 C   0  0
   -1.9717   -5.7707   -0.5171 C   0  0
   -1.4560   -6.0718   -1.7870 C   0  0
   -0.1393   -5.6978   -2.1000 C   0  0
    0.6206   -5.0748   -1.2360 N   0  0
   -2.2638   -6.7536   -2.7530 C   0  0
   -2.9046   -7.2945   -3.5194 N   0  0
   -3.2606   -6.1213   -0.1697 N   0  0
   -3.5474   -7.4341    0.2206 C   0  0
   -2.5209   -8.2803    0.6202 C   0  0
   -2.8044   -9.5756    1.0057 C   0  0
   -4.1139  -10.0326    0.9939 C   0  0
   -5.1407   -9.1883    0.5944 C   0  0
   -4.8592   -7.8899    0.2142 C   0  0
   -6.7793   -9.7615    0.5788 Cl  0  0
   -4.3919  -11.3087    1.3734 O   0  0
   -3.2869  -12.1224    1.7720 C   0  0
   -3.7842  -13.4923    2.1551 C   0  0
   -4.1630  -13.8575    3.3494 N   0  0
   -4.5425  -15.1436    3.3191 C   0  0
   -4.3933  -15.5925    2.0582 C   0  0
   -3.9173  -14.5438    1.3183 N   0  0
   -3.6074  -14.5601   -0.1135 C   0  0
    4.4792   -1.8359    3.3099 H   0  0
    2.9537   -1.1633    3.9333 H   0  0
    3.5493   -2.7279    4.5379 H   0  0
    2.6355   -2.1542    1.6826 H   0  0
    3.2312   -3.7188    2.2872 H   0  0
    2.0353   -3.8243    0.6007 H   0  0
   -2.5763   -5.0200    1.9913 H   0  0
   -0.5342   -3.7192    4.5676 H   0  0
   -2.2092   -2.9301    6.1728 H   0  0
   -4.9400   -3.0263    4.8158 H   0  0
   -5.3085   -3.1519    7.4190 H   0  0
   -3.8140   -2.2006    7.5917 H   0  0
   -6.4257   -1.8207    5.0674 H   0  0
   -7.2803   -2.1622    6.5910 H   0  0
   -7.2554   -0.5073    5.9362 H   0  0
   -4.8865   -0.4113    8.6878 H   0  0
   -6.3719    0.3018    8.0145 H   0  0
   -6.3968   -1.3532    8.6693 H   0  0
    0.2559   -5.9303   -3.0778 H   0  0
   -3.9676   -5.4577   -0.1960 H   0  0
   -1.5010   -7.9252    0.6290 H   0  0
   -2.0060  -10.2333    1.3163 H   0  0
   -5.6585   -7.2313   -0.0921 H   0  0
   -2.5828  -12.2097    0.9444 H   0  0
   -2.7883  -11.6647    2.6264 H   0  0
   -4.9044  -15.7185    4.1588 H   0  0
   -4.6112  -16.5874    1.6990 H   0  0
   -2.5678  -14.8544   -0.2569 H   0  0
   -4.2597  -15.2726   -0.6184 H   0  0
   -3.7642  -13.5652   -0.5304 H   0  0
   -4.8996   -0.4683    6.3039 H   0  0
  1  2  1  0
  1 41  1  0
  1 42  1  0
  1 43  1  0
  2  3  1  0
  2 44  1  0
  2 45  1  0
  3  4  1  0
  4  9  4  0
  4  5  4  0
  5  6  4  0
  5 46  1  0
  6 22  4  0
  6  7  4  0
  7  8  4  0
  7 19  4  0
  8  9  4  0
  8 47  1  0
  9 10  1  0
 10 11  1  0
 10 48  1  0
 11 12  2  0
 11 13  1  0
 13 14  2  0
 13 49  1  0
 14 15  1  0
 14 50  1  0
 15 16  1  0
 15 51  1  0
 15 52  1  0
 16 17  1  0
 16 18  1  0
 16 71  1  0
 17 53  1  0
 17 54  1  0
 17 55  1  0
 18 56  1  0
 18 57  1  0
 18 58  1  0
 19 20  4  0
 19 25  1  0
 20 21  4  0
 20 23  1  0
 21 22  4  0
 21 59  1  0
 23 24  3  0
 25 26  1  0
 25 60  1  0
 26 31  4  0
 26 27  4  0
 27 28  4  0
 27 61  1  0
 28 29  4  0
 28 62  1  0
 29 30  4  0
 29 33  1  0
 30 31  4  0
 30 32  1  0
 31 63  1  0
 33 34  1  0
 34 35  1  0
 34 64  1  0
 34 65  1  0
 35 39  1  0
 35 36  2  0
 36 37  1  0
 37 38  2  0
 37 66  1  0
 38 39  1  0
 38 67  1  0
 39 40  1  0
 40 68  1  0
 40 69  1  0
 40 70  1  0
M  END
> <Name>
CHEMBL175840

$$$$
CHEMBL139307
  SciTegic01042610103D

 58 61  0  0  0  0            999 V2000
   -1.7936    1.8884    1.6543 C   0  0
   -1.9100    0.6571    1.1647 C   0  0
   -0.7171   -0.1895    1.0126 C   0  0
    0.3871    0.2703    1.2331 O   0  0
   -0.8475   -1.4749    0.6288 N   0  0
   -2.1642   -1.9983    0.2567 C   0  0
   -2.3886   -1.7951   -1.2430 C   0  0
   -3.7638   -2.3417   -1.6316 C   0  0
   -3.9792   -2.1467   -3.0716 N   0  0
   -4.0725   -0.7170   -3.4014 C   0  0
   -4.2366   -0.5578   -4.9152 C   0  0
   -5.3885   -1.2887   -5.3443 O   0  0
   -5.3309   -2.6848   -5.0396 C   0  0
   -5.1779   -2.8657   -3.5271 C   0  0
    0.2744   -2.3091    0.5858 C   0  0
    1.2512   -2.1068   -0.3944 C   0  0
    2.3535   -2.9033   -0.4596 C   0  0
    2.5183   -3.9432    0.4661 C   0  0
    1.5328   -4.1537    1.4616 C   0  0
    0.4103   -3.3209    1.5144 C   0  0
    1.7273   -5.2117    2.3829 C   0  0
    2.8224   -5.9508    2.2660 N   0  0
    3.7164   -5.7164    1.3187 C   0  0
    3.5887   -4.7516    0.4392 N   0  0
    0.8029   -5.4663    3.3754 N   0  0
    1.0694   -6.4354    4.3468 C   0  0
    0.0371   -7.2147    4.8542 C   0  0
    0.3033   -8.1714    5.8138 C   0  0
    1.5958   -8.3546    6.2702 C   0  0
    2.6264   -7.5805    5.7673 C   0  0
    2.3674   -6.6252    4.8026 C   0  0
    4.3919   -7.8346    6.3952 Br  0  0
   -2.6696    2.5101    1.7660 H   0  0
   -0.8238    2.2648    1.9443 H   0  0
   -2.8804    0.2791    0.8789 H   0  0
   -2.2117   -3.0619    0.4904 H   0  0
   -2.9366   -1.4689    0.8147 H   0  0
   -2.3411   -0.7315   -1.4767 H   0  0
   -1.6163   -2.3245   -1.8010 H   0  0
   -3.8113   -3.4053   -1.3979 H   0  0
   -4.5361   -1.8123   -1.0736 H   0  0
   -4.9336   -0.2819   -2.8942 H   0  0
   -3.1639   -0.2089   -3.0783 H   0  0
   -4.3634    0.4971   -5.1586 H   0  0
   -3.3512   -0.9445   -5.4199 H   0  0
   -6.2492   -3.1683   -5.3730 H   0  0
   -4.4774   -3.1334   -5.5480 H   0  0
   -5.0762   -3.9260   -3.2957 H   0  0
   -6.0567   -2.4649   -3.0219 H   0  0
    1.1291   -1.3074   -1.1102 H   0  0
    3.0989   -2.7346   -1.2227 H   0  0
   -0.3445   -3.4704    2.2723 H   0  0
    4.5911   -6.3479    1.2678 H   0  0
   -0.0318   -4.9727    3.3990 H   0  0
   -0.9727   -7.0722    4.4987 H   0  0
   -0.4990   -8.7770    6.2087 H   0  0
    1.8011   -9.1033    7.0210 H   0  0
    3.1727   -6.0241    4.4069 H   0  0
  1  2  2  0
  1 33  1  0
  1 34  1  0
  2  3  1  0
  2 35  1  0
  3  4  2  0
  3  5  1  0
  5  6  1  0
  5 15  1  0
  6  7  1  0
  6 36  1  0
  6 37  1  0
  7  8  1  0
  7 38  1  0
  7 39  1  0
  8  9  1  0
  8 40  1  0
  8 41  1  0
  9 14  1  0
  9 10  1  0
 10 11  1  0
 10 42  1  0
 10 43  1  0
 11 12  1  0
 11 44  1  0
 11 45  1  0
 12 13  1  0
 13 14  1  0
 13 46  1  0
 13 47  1  0
 14 48  1  0
 14 49  1  0
 15 20  4  0
 15 16  4  0
 16 17  4  0
 16 50  1  0
 17 18  4  0
 17 51  1  0
 18 24  4  0
 18 19  4  0
 19 20  4  0
 19 21  4  0
 20 52  1  0
 21 22  4  0
 21 25  1  0
 22 23  4  0
 23 24  4  0
 23 53  1  0
 25 26  1  0
 25 54  1  0
 26 31  4  0
 26 27  4  0
 27 28  4  0
 27 55  1  0
 28 29  4  0
 28 56  1  0
 29 30  4  0
 29 57  1  0
 30 31  4  0
 30 32  1  0
 31 58  1  0
M  END
> <Name>
CHEMBL139307

$$$$
CHEMBL424093
  SciTegic01042610103D

 46 49  0  0  0  0            999 V2000
    5.3506    1.3860   -2.0835 C   0  0
    5.3901    0.0046   -2.0513 C   0  0
    4.4414   -0.6974   -1.3315 C   0  0
    3.4534   -0.0179   -0.6436 C   0  0
    3.4145    1.3636   -0.6751 C   0  0
    4.3624    2.0655   -1.3961 C   0  0
    2.4186   -0.7832    0.1402 C   0  0
    2.8940   -0.9833    1.5114 N   0  0
    3.1518   -2.1261    1.9176 N   0  0
    3.1456   -3.2052    1.0241 N   0  0
    3.3273   -4.5076    1.4995 C   0  0
    3.5091   -4.7266    2.8688 C   0  0
    3.6882   -5.9839    3.3594 C   0  0
    3.6912   -7.0798    2.4850 C   0  0
    3.5072   -6.8653    1.0970 C   0  0
    3.3201   -5.5662    0.6139 C   0  0
    3.5146   -7.9921    0.2388 C   0  0
    3.6935   -9.1901    0.7792 N   0  0
    3.8616   -9.3418    2.0831 C   0  0
    3.8638   -8.3356    2.9247 N   0  0
    3.3400   -7.8475   -1.1225 N   0  0
    3.2309   -8.9781   -1.9372 C   0  0
    3.7299   -8.9527   -3.2336 C   0  0
    3.6212  -10.0713   -4.0360 C   0  0
    3.0163  -11.2163   -3.5508 C   0  0
    2.5178  -11.2452   -2.2605 C   0  0
    2.6286  -10.1309   -1.4505 C   0  0
    1.6910  -12.8133   -1.6021 Br  0  0
    6.0945    1.9346   -2.6422 H   0  0
    6.1619   -0.5263   -2.5887 H   0  0
    4.4718   -1.7767   -1.3069 H   0  0
    2.6424    1.8944   -0.1380 H   0  0
    4.3317    3.1447   -1.4210 H   0  0
    1.4858   -0.2194    0.1577 H   0  0
    2.2490   -1.7516   -0.3305 H   0  0
    3.0151   -3.0488    0.0757 H   0  0
    3.5076   -3.8860    3.5469 H   0  0
    3.8280   -6.1367    4.4193 H   0  0
    3.1749   -5.3927   -0.4422 H   0  0
    4.0033  -10.3393    2.4720 H   0  0
    3.2931   -6.9612   -1.5140 H   0  0
    4.2022   -8.0589   -3.6136 H   0  0
    4.0087  -10.0517   -5.0439 H   0  0
    2.9326  -12.0897   -4.1806 H   0  0
    2.2438  -10.1552   -0.4417 H   0  0
    3.0071   -0.2218    2.1015 H   0  0
  1  6  4  0
  1  2  4  0
  1 29  1  0
  2  3  4  0
  2 30  1  0
  3  4  4  0
  3 31  1  0
  4  5  4  0
  4  7  1  0
  5  6  4  0
  5 32  1  0
  6 33  1  0
  7  8  1  0
  7 34  1  0
  7 35  1  0
  8  9  2  0
  8 46  1  0
  9 10  1  0
 10 11  1  0
 10 36  1  0
 11 16  4  0
 11 12  4  0
 12 13  4  0
 12 37  1  0
 13 14  4  0
 13 38  1  0
 14 20  4  0
 14 15  4  0
 15 16  4  0
 15 17  4  0
 16 39  1  0
 17 18  4  0
 17 21  1  0
 18 19  4  0
 19 20  4  0
 19 40  1  0
 21 22  1  0
 21 41  1  0
 22 27  4  0
 22 23  4  0
 23 24  4  0
 23 42  1  0
 24 25  4  0
 24 43  1  0
 25 26  4  0
 25 44  1  0
 26 27  4  0
 26 28  1  0
 27 45  1  0
M  END
> <Name>
CHEMBL424093

$$$$
CHEMBL592457
  SciTegic01042610103D

 25 26  0  0  0  0            999 V2000
   -0.0167    1.3806    0.0096 C   0  0
    1.1664    2.0958    0.0022 C   0  0
    2.3805    1.4300   -0.0134 C   0  0
    2.4050    0.0283   -0.0211 C   0  0
    1.2035   -0.6833   -0.0130 C   0  0
    0.0021   -0.0041    0.0020 C   0  0
   -1.6247   -0.9681    0.0123 Br  0  0
    3.6915   -0.6902   -0.0382 C   0  0
    4.8064   -0.0251   -0.0461 N   0  0
    6.0294   -0.7082   -0.0623 N   0  0
    7.2014   -0.0091   -0.0707 C   0  0
    7.3710    1.3070   -0.0596 N   0  0
    8.5321    1.9019   -0.0689 C   0  0
    8.6425    3.1126   -0.0584 O   0  0
    9.7404    0.9735   -0.0942 C   0  0
    8.8701   -0.6504   -0.0913 S   0  0
    3.5432    2.1322   -0.0216 O   0  0
   -0.9609    1.9048    0.0260 H   0  0
    1.1437    3.1755    0.0082 H   0  0
    1.2144   -1.7632   -0.0192 H   0  0
    3.7069   -1.7701   -0.0441 H   0  0
    6.0433   -1.6781   -0.0676 H   0  0
   10.3300    1.1120   -1.0004 H   0  0
   10.3537    1.0937    0.7989 H   0  0
    3.8887    2.3311    0.8593 H   0  0
  1  6  4  0
  1  2  4  0
  1 18  1  0
  2  3  4  0
  2 19  1  0
  3  4  4  0
  3 17  1  0
  4  5  4  0
  4  8  1  0
  5  6  4  0
  5 20  1  0
  6  7  1  0
  8  9  2  0
  8 21  1  0
  9 10  1  0
 10 11  1  0
 10 22  1  0
 11 16  1  0
 11 12  2  0
 12 13  1  0
 13 14  2  0
 13 15  1  0
 15 16  1  0
 15 23  1  0
 15 24  1  0
 17 25  1  0
M  END
> <Name>
CHEMBL592457

$$$$
CHEMBL298637
  SciTegic01042610103D

 32 34  0  0  0  0            999 V2000
   -0.0582    1.3677    1.1220 C   0  0
   -0.0294   -0.0765    0.8781 N   0  0
   -1.2113   -0.7674    0.6704 C   0  0
   -2.4247   -0.0678    0.6915 C   0  0
   -3.5972   -0.7366    0.4878 C   0  0
   -3.5389   -2.1211    0.2617 C   0  0
   -2.2814   -2.7729    0.2521 C   0  0
   -1.1670   -2.0687    0.4520 N   0  0
   -2.2494   -4.0957    0.0338 N   0  0
   -3.3601   -4.7666   -0.1659 C   0  0
   -4.5542   -4.1995   -0.1654 N   0  0
   -4.6998   -2.8953    0.0409 C   0  0
   -5.9502   -2.3129    0.0390 N   0  0
   -7.0931   -3.1115   -0.0603 C   0  0
   -7.1188   -4.3670    0.5342 C   0  0
   -8.2494   -5.1536    0.4349 C   0  0
   -9.3555   -4.6935   -0.2559 C   0  0
   -9.3335   -3.4440   -0.8497 C   0  0
   -8.2072   -2.6494   -0.7486 C   0  0
  -10.8482   -2.8201   -1.7942 Br  0  0
    0.9592    1.7330    1.2617 H   0  0
   -0.5112    1.8715    0.2681 H   0  0
   -0.6442    1.5732    2.0178 H   0  0
    0.8177   -0.5489    0.8620 H   0  0
   -2.4326    0.9975    0.8687 H   0  0
   -4.5430   -0.2155    0.5005 H   0  0
   -3.2952   -5.8307   -0.3388 H   0  0
   -6.0364   -1.3491    0.1067 H   0  0
   -6.2552   -4.7275    1.0733 H   0  0
   -8.2696   -6.1296    0.8970 H   0  0
  -10.2383   -5.3110   -0.3323 H   0  0
   -8.1918   -1.6723   -1.2084 H   0  0
  1  2  1  0
  1 21  1  0
  1 22  1  0
  1 23  1  0
  2  3  1  0
  2 24  1  0
  3  8  4  0
  3  4  4  0
  4  5  4  0
  4 25  1  0
  5  6  4  0
  5 26  1  0
  6 12  4  0
  6  7  4  0
  7  8  4  0
  7  9  4  0
  9 10  4  0
 10 11  4  0
 10 27  1  0
 11 12  4  0
 12 13  1  0
 13 14  1  0
 13 28  1  0
 14 19  4  0
 14 15  4  0
 15 16  4  0
 15 29  1  0
 16 17  4  0
 16 30  1  0
 17 18  4  0
 17 31  1  0
 18 19  4  0
 18 20  1  0
 19 32  1  0
M  END
> <Name>
CHEMBL298637

$$$$
CHEMBL399735
  SciTegic01042610103D

 48 51  0  0  0  0            999 V2000
   -0.7714    1.4175   -0.5216 C   0  0
   -0.7437   -0.0112   -0.5223 O   0  0
    0.0548   -0.6127   -1.4441 C   0  0
    0.7851    0.1533   -2.3077 C   0  0
    1.6075   -0.4649   -3.2571 C   0  0
    1.6779   -1.8789   -3.3171 C   0  0
    0.9207   -2.6445   -2.4221 C   0  0
    0.1237   -2.0119   -1.4937 C   0  0
   -0.6075   -2.7521   -0.6202 O   0  0
   -0.4947   -4.1731   -0.7209 C   0  0
    2.4745   -2.4465   -4.2364 N   0  0
    3.1726   -1.7030   -5.0614 C   0  0
    3.1385   -0.3800   -5.0424 N   0  0
    2.3847    0.2817   -4.1743 C   0  0
    2.3589    1.6620   -4.1659 N   0  0
    3.0381    2.3799   -5.1548 C   0  0
    3.6591    3.5830   -4.8377 C   0  0
    4.3317    4.2973   -5.8113 C   0  0
    4.3918    3.8218   -7.1053 C   0  0
    3.7716    2.6135   -7.4350 C   0  0
    3.0971    1.8895   -6.4497 C   0  0
    3.8317    2.1175   -8.7769 C   0  0
    3.8810    1.7108   -9.8772 C   0  0
    3.9411    1.2147  -11.2191 C   0  0
    4.6248    1.9334  -12.2033 C   0  0
    4.6789    1.4492  -13.4936 C   0  0
    4.0578    0.2551  -13.8147 C   0  0
    3.3785   -0.4619  -12.8454 C   0  0
    3.3212    0.0068  -11.5495 C   0  0
    0.2318    1.8003   -0.3343 H   0  0
   -1.1216    1.7746   -1.4901 H   0  0
   -1.4456    1.7675    0.2602 H   0  0
    0.7280    1.2307   -2.2586 H   0  0
    0.9647   -3.7230   -2.4565 H   0  0
   -0.8118   -4.4934   -1.7133 H   0  0
    0.5421   -4.4677   -0.5581 H   0  0
   -1.1281   -4.6421    0.0320 H   0  0
    3.8036   -2.1924   -5.7885 H   0  0
    1.8696    2.1338   -3.4738 H   0  0
    3.6155    3.9608   -3.8269 H   0  0
    4.8116    5.2312   -5.5585 H   0  0
    4.9177    4.3833   -7.8633 H   0  0
    2.6191    0.9531   -6.6969 H   0  0
    5.1094    2.8659  -11.9543 H   0  0
    5.2070    2.0036  -14.2553 H   0  0
    4.1031   -0.1191  -14.8268 H   0  0
    2.8955   -1.3928  -13.1034 H   0  0
    2.7945   -0.5560  -10.7931 H   0  0
  1  2  1  0
  1 30  1  0
  1 31  1  0
  1 32  1  0
  2  3  1  0
  3  8  4  0
  3  4  4  0
  4  5  4  0
  4 33  1  0
  5 14  4  0
  5  6  4  0
  6  7  4  0
  6 11  4  0
  7  8  4  0
  7 34  1  0
  8  9  1  0
  9 10  1  0
 10 35  1  0
 10 36  1  0
 10 37  1  0
 11 12  4  0
 12 13  4  0
 12 38  1  0
 13 14  4  0
 14 15  1  0
 15 16  1  0
 15 39  1  0
 16 21  4  0
 16 17  4  0
 17 18  4  0
 17 40  1  0
 18 19  4  0
 18 41  1  0
 19 20  4  0
 19 42  1  0
 20 21  4  0
 20 22  1  0
 21 43  1  0
 22 23  3  0
 23 24  1  0
 24 29  4  0
 24 25  4  0
 25 26  4  0
 25 44  1  0
 26 27  4  0
 26 45  1  0
 27 28  4  0
 27 46  1  0
 28 29  4  0
 28 47  1  0
 29 48  1  0
M  END
> <Name>
CHEMBL399735

$$$$
CHEMBL251498
  SciTegic01042610103D

 46 49  0  0  0  0            999 V2000
    0.0515    1.4024    0.6637 C   0  0
    1.1852    2.1155    0.4269 C   0  0
    2.3957    1.4476    0.1908 C   0  0
    2.4275    0.0307    0.2010 C   0  0
    1.2559   -0.6888    0.4455 C   0  0
    0.0725   -0.0017    0.6759 C   0  0
   -1.1349   -0.7290    0.9282 C   0  0
   -2.1248   -1.3253    1.1350 C   0  0
   -3.3660   -2.0730    1.3943 C   0  0
   -3.0865   -3.5147    1.3547 N   0  0
   -2.7060   -3.9406    0.0001 C   0  0
   -2.3667   -5.4334    0.0167 C   0  0
   -3.4869   -6.1662    0.5201 O   0  0
   -3.8841   -5.7775    1.8378 C   0  0
   -4.2389   -4.2882    1.8396 C   0  0
    3.6671   -0.6130   -0.0408 C   0  0
    4.7330    0.1442   -0.2640 N   0  0
    4.6543    1.4652   -0.2636 C   0  0
    3.5352    2.1144   -0.0462 N   0  0
    3.7623   -1.9887   -0.0434 N   0  0
    5.0133   -2.6031   -0.1637 C   0  0
    5.1394   -3.7911   -0.8723 C   0  0
    6.3753   -4.3961   -0.9906 C   0  0
    7.4887   -3.8198   -0.4030 C   0  0
    7.3658   -2.6350    0.3049 C   0  0
    6.1317   -2.0231    0.4203 C   0  0
    8.7633   -1.9154    1.0415 Cl  0  0
    8.6966   -4.4138   -0.5197 F   0  0
   -0.8763    1.9230    0.8493 H   0  0
    1.1533    3.1950    0.4203 H   0  0
    1.2706   -1.7687    0.4548 H   0  0
   -3.7531   -1.8048    2.3773 H   0  0
   -4.1053   -1.8252    0.6327 H   0  0
   -3.5362   -3.7637   -0.6837 H   0  0
   -1.8355   -3.3730   -0.3288 H   0  0
   -2.1392   -5.7662   -0.9960 H   0  0
   -1.5025   -5.6030    0.6590 H   0  0
   -4.7542   -6.3593    2.1422 H   0  0
   -3.0641   -5.9571    2.5330 H   0  0
   -4.4873   -3.9744    2.8535 H   0  0
   -5.0936   -4.1168    1.1852 H   0  0
    5.5525    2.0350   -0.4505 H   0  0
    2.9618   -2.5304    0.0382 H   0  0
    4.2713   -4.2416   -1.3304 H   0  0
    6.4732   -5.3198   -1.5416 H   0  0
    6.0366   -1.0971    0.9680 H   0  0
  1  6  4  0
  1  2  4  0
  1 29  1  0
  2  3  4  0
  2 30  1  0
  3 19  4  0
  3  4  4  0
  4  5  4  0
  4 16  4  0
  5  6  4  0
  5 31  1  0
  6  7  1  0
  7  8  3  0
  8  9  1  0
  9 10  1  0
  9 32  1  0
  9 33  1  0
 10 15  1  0
 10 11  1  0
 11 12  1  0
 11 34  1  0
 11 35  1  0
 12 13  1  0
 12 36  1  0
 12 37  1  0
 13 14  1  0
 14 15  1  0
 14 38  1  0
 14 39  1  0
 15 40  1  0
 15 41  1  0
 16 17  4  0
 16 20  1  0
 17 18  4  0
 18 19  4  0
 18 42  1  0
 20 21  1  0
 20 43  1  0
 21 26  4  0
 21 22  4  0
 22 23  4  0
 22 44  1  0
 23 24  4  0
 23 45  1  0
 24 25  4  0
 24 28  1  0
 25 26  4  0
 25 27  1  0
 26 46  1  0
M  END
> <Name>
CHEMBL251498

$$$$
CHEMBL308593
  SciTegic01042610103D

 39 42  0  0  0  0            999 V2000
   -0.9270    1.4073    0.0147 C   0  0
   -0.6333   -0.0708    0.0051 C   0  0
   -0.4889   -0.8314   -1.1081 C   0  0
   -0.2145   -2.1982   -0.6469 C   0  0
   -0.2164   -2.1452    0.7580 C   0  0
   -0.4659   -0.8483    1.1180 N   0  0
   -0.5193   -0.5271    2.0317 H   0  0
    0.0114   -3.2686    1.4370 N   0  0
    0.2331   -4.4018    0.8064 C   0  0
    0.2440   -4.4948   -0.5107 N   0  0
    0.0264   -3.4274   -1.2746 C   0  0
    0.0381   -3.5288   -2.6553 N   0  0
    0.1583   -4.7817   -3.2631 C   0  0
   -0.4200   -5.8994   -2.6742 C   0  0
   -0.3003   -7.1360   -3.2769 C   0  0
    0.3948   -7.2634   -4.4656 C   0  0
    0.9726   -6.1527   -5.0551 C   0  0
    0.8509   -4.9110   -4.4597 C   0  0
    1.8452   -6.3176   -6.5468 Cl  0  0
   -0.5890   -0.3732   -2.5144 C   0  0
   -1.6183   -0.8398   -3.3308 C   0  0
   -1.7067   -0.4093   -4.6390 C   0  0
   -0.7765    0.4833   -5.1406 C   0  0
    0.2473    0.9493   -4.3354 C   0  0
    0.3425    0.5303   -3.0240 C   0  0
    0.0101    1.9640    0.0059 H   0  0
   -1.5123    1.6672   -0.8673 H   0  0
   -1.4911    1.6598    0.9125 H   0  0
    0.4139   -5.2924    1.3900 H   0  0
   -0.0370   -2.7303   -3.2009 H   0  0
   -0.9625   -5.8012   -1.7455 H   0  0
   -0.7497   -8.0048   -2.8192 H   0  0
    0.4872   -8.2319   -4.9347 H   0  0
    1.2981   -4.0435   -4.9221 H   0  0
   -2.3449   -1.5369   -2.9403 H   0  0
   -2.5034   -0.7703   -5.2725 H   0  0
   -0.8496    0.8173   -6.1650 H   0  0
    0.9709    1.6458   -4.7325 H   0  0
    1.1396    0.8982   -2.3949 H   0  0
  1  2  1  0
  1 26  1  0
  1 27  1  0
  1 28  1  0
  2  6  1  0
  2  3  2  0
  3  4  1  0
  3 20  1  0
  4 11  4  0
  4  5  4  0
  5  6  1  0
  5  8  4  0
  6  7  1  0
  8  9  4  0
  9 10  4  0
  9 29  1  0
 10 11  4  0
 11 12  1  0
 12 13  1  0
 12 30  1  0
 13 18  4  0
 13 14  4  0
 14 15  4  0
 14 31  1  0
 15 16  4  0
 15 32  1  0
 16 17  4  0
 16 33  1  0
 17 18  4  0
 17 19  1  0
 18 34  1  0
 20 25  4  0
 20 21  4  0
 21 22  4  0
 21 35  1  0
 22 23  4  0
 22 36  1  0
 23 24  4  0
 23 37  1  0
 24 25  4  0
 24 38  1  0
 25 39  1  0
M  END
> <Name>
CHEMBL308593

$$$$
CHEMBL179313
  SciTegic01042610103D

 70 73  0  0  0  0            999 V2000
    1.4879   -2.0606   -4.8316 C   0  0
    0.9322   -2.7919   -3.6080 C   0  0
    1.9983   -3.0825   -2.7019 O   0  0
    1.6729   -3.7345   -1.5555 C   0  0
    0.3636   -4.0856   -1.3204 C   0  0
    0.0211   -4.7592   -0.1381 C   0  0
    1.0346   -5.0693    0.8009 C   0  0
    2.3636   -4.7037    0.5436 C   0  0
    2.6766   -4.0479   -0.6261 C   0  0
    4.0037   -3.6871   -0.8874 N   0  0
    4.8471   -3.4352    0.1332 C   0  0
    4.4865   -3.6207    1.2800 O   0  0
    6.2032   -2.9360   -0.1396 C   0  0
    7.0356   -2.6874    0.8677 C   0  0
    8.4253   -2.1759    0.5882 C   0  0
    8.6457   -0.9270    1.3295 N   0  0
   10.0376   -0.4919    1.1528 C   0  0
    7.7398    0.1112    0.8203 C   0  0
    0.6837   -5.7485    1.9911 C   0  0
   -0.6659   -6.0829    2.1804 C   0  0
   -1.6043   -5.7358    1.1953 C   0  0
   -1.2516   -5.1076    0.1030 N   0  0
   -1.0815   -6.7712    3.3654 C   0  0
   -1.4113   -7.3173    4.3054 N   0  0
    1.6374   -6.0720    2.9348 N   0  0
    2.1517   -7.3721    2.9927 C   0  0
    2.0058   -8.2260    1.9069 C   0  0
    2.5138   -9.5088    1.9642 C   0  0
    3.1694   -9.9454    3.1058 C   0  0
    3.3155   -9.0934    4.1918 C   0  0
    2.8130   -7.8074    4.1336 C   0  0
    4.1352   -9.6412    5.6207 Cl  0  0
    3.6690  -11.2092    3.1613 O   0  0
    3.4823  -12.0318    2.0079 C   0  0
    4.0970  -13.3860    2.2518 C   0  0
    5.4231  -13.6245    1.9240 C   0  0
    5.9462  -14.8852    2.1661 C   0  0
    5.1342  -15.8559    2.7222 C   0  0
    3.8770  -15.5935    3.0210 N   0  0
    3.3478  -14.4040    2.8102 C   0  0
    2.2250   -2.6916   -5.3283 H   0  0
    0.6747   -1.8389   -5.5228 H   0  0
    1.9600   -1.1303   -4.5156 H   0  0
    0.1951   -2.1609   -3.1113 H   0  0
    0.4602   -3.7222   -3.9240 H   0  0
   -0.3997   -3.8428   -2.0448 H   0  0
    3.1388   -4.9385    1.2580 H   0  0
    4.3163   -3.6184   -1.8031 H   0  0
    6.5234   -2.7713   -1.1578 H   0  0
    6.7155   -2.8521    1.8860 H   0  0
    9.1566   -2.9198    0.9040 H   0  0
    8.5355   -1.9887   -0.4799 H   0  0
   10.2346   -0.3253    0.0938 H   0  0
   10.2012    0.4348    1.7029 H   0  0
   10.7099   -1.2622    1.5307 H   0  0
    7.9033    1.0379    1.3703 H   0  0
    7.9367    0.2777   -0.2388 H   0  0
    6.7070   -0.2117    0.9513 H   0  0
   -2.6426   -5.9939    1.3426 H   0  0
    1.9512   -5.3981    3.5580 H   0  0
    1.4948   -7.8867    1.0180 H   0  0
    2.4003  -10.1725    1.1198 H   0  0
    2.9307   -7.1426    4.9766 H   0  0
    2.4162  -12.1467    1.8122 H   0  0
    3.9614  -11.5651    1.1473 H   0  0
    6.0338  -12.8465    1.4901 H   0  0
    6.9749  -15.1064    1.9230 H   0  0
    5.5341  -16.8406    2.9140 H   0  0
    2.3156  -14.2250    3.0728 H   0  0
    8.4634   -1.0811    2.3099 H   0  0
  1  2  1  0
  1 41  1  0
  1 42  1  0
  1 43  1  0
  2  3  1  0
  2 44  1  0
  2 45  1  0
  3  4  1  0
  4  9  4  0
  4  5  4  0
  5  6  4  0
  5 46  1  0
  6 22  4  0
  6  7  4  0
  7  8  4  0
  7 19  4  0
  8  9  4  0
  8 47  1  0
  9 10  1  0
 10 11  1  0
 10 48  1  0
 11 12  2  0
 11 13  1  0
 13 14  2  0
 13 49  1  0
 14 15  1  0
 14 50  1  0
 15 16  1  0
 15 51  1  0
 15 52  1  0
 16 17  1  0
 16 18  1  0
 16 70  1  0
 17 53  1  0
 17 54  1  0
 17 55  1  0
 18 56  1  0
 18 57  1  0
 18 58  1  0
 19 20  4  0
 19 25  1  0
 20 21  4  0
 20 23  1  0
 21 22  4  0
 21 59  1  0
 23 24  3  0
 25 26  1  0
 25 60  1  0
 26 31  4  0
 26 27  4  0
 27 28  4  0
 27 61  1  0
 28 29  4  0
 28 62  1  0
 29 30  4  0
 29 33  1  0
 30 31  4  0
 30 32  1  0
 31 63  1  0
 33 34  1  0
 34 35  1  0
 34 64  1  0
 34 65  1  0
 35 40  4  0
 35 36  4  0
 36 37  4  0
 36 66  1  0
 37 38  4  0
 37 67  1  0
 38 39  4  0
 38 68  1  0
 39 40  4  0
 40 69  1  0
M  END
> <Name>
CHEMBL179313

$$$$
CHEMBL1081849
  SciTegic01042610103D

 74 78  0  0  0  0            999 V2000
   -0.6067    1.4748   -0.0386 C   0  0
   -0.4851   -0.0273   -0.0386 C   0  0
   -0.2244   -0.8407   -1.1595 C   0  0
   -0.1948   -2.1768   -0.7029 C   0  0
    0.0498   -3.1782   -1.6423 C   0  0
    0.2420   -2.8530   -2.9030 N   0  0
    0.2172   -1.6439   -3.3280 N   0  0
   -0.0054   -0.6096   -2.5306 C   0  0
   -0.0228    0.6796   -3.0386 N   0  0
    0.0733    0.8892   -4.4192 C   0  0
   -0.5147   -0.0087   -5.3008 C   0  0
   -0.4197    0.1984   -6.6629 C   0  0
    0.2626    1.3027   -7.1512 C   0  0
    0.8510    2.2006   -6.2714 C   0  0
    0.7515    1.9980   -4.9079 C   0  0
    1.7058    3.5820   -6.8835 Cl  0  0
    0.3555    1.5057   -8.4929 O   0  0
   -0.2732    0.5416   -9.3399 C   0  0
   -0.0668    0.9291  -10.7816 C   0  0
   -0.9825    1.7491  -11.4147 C   0  0
   -0.7945    2.1053  -12.7369 C   0  0
    0.3092    1.6417  -13.4279 C   0  0
    1.2267    0.8207  -12.7950 C   0  0
    1.0405    0.4694  -11.4685 C   0  0
    2.3056    0.3666  -13.4695 F   0  0
   -0.4303   -2.1542    0.6442 N   0  0
   -0.4671   -2.9309    1.2240 H   0  0
   -0.6014   -0.8426    1.0448 C   0  0
   -0.8696   -0.3991    2.4211 C   0  0
   -1.0067    0.7852    2.6627 O   0  0
   -0.9633   -1.3049    3.4147 N   0  0
   -1.2305   -0.8632    4.7858 C   0  0
   -1.2875   -2.0799    5.7116 C   0  0
   -1.5665   -1.6185    7.1435 C   0  0
   -1.6212   -2.7868    8.0324 N   0  0
   -2.7764   -3.6376    7.7135 C   0  0
   -2.7636   -4.8706    8.6197 C   0  0
   -2.8193   -4.4463   10.0249 N   0  0  2  0  0  0
   -1.6467   -3.6179   10.3348 C   0  0
   -1.6502   -2.3745    9.4429 C   0  0
   -2.8253   -5.6307   10.8938 C   0  0
    0.3741    1.9187    0.1318 H   0  0
   -0.9940    1.8080   -1.0014 H   0  0
   -1.2881    1.7841    0.7539 H   0  0
    0.0815   -4.2137   -1.3371 H   0  0
   -0.1014    1.4368   -2.4374 H   0  0
   -1.0458   -0.8690   -4.9211 H   0  0
   -0.8767   -0.5002   -7.3481 H   0  0
    1.2051    2.6990   -4.2230 H   0  0
    0.1655   -0.4401   -9.1612 H   0  0
   -1.3406    0.5078   -9.1221 H   0  0
   -1.8455    2.1112  -10.8758 H   0  0
   -1.5104    2.7458  -13.2304 H   0  0
    0.4556    1.9196  -14.4612 H   0  0
    1.7580   -0.1675  -10.9724 H   0  0
   -0.8539   -2.2493    3.2221 H   0  0
   -0.4348   -0.1942    5.1135 H   0  0
   -2.1843   -0.3366    4.8185 H   0  0
   -2.0832   -2.7489    5.3839 H   0  0
   -0.3337   -2.6064    5.6789 H   0  0
   -0.7708   -0.9496    7.4712 H   0  0
   -2.5203   -1.0920    7.1762 H   0  0
   -3.6969   -3.0768    7.8754 H   0  0
   -2.7200   -3.9517    6.6713 H   0  0
   -3.6275   -5.4960    8.3945 H   0  0
   -1.8493   -5.4385    8.4477 H   0  0
   -1.6825   -3.3145   11.3812 H   0  0
   -0.7381   -4.1922   10.1540 H   0  0
   -0.7722   -1.7670    9.6623 H   0  0
   -2.5522   -1.7928    9.6333 H   0  0
   -1.9175   -6.2099   10.7248 H   0  0
   -2.8666   -5.3161   11.9366 H   0  0
   -3.6961   -6.2450   10.6649 H   0  0
   -3.6601   -3.9108   10.1812 H   0  0
  1  2  1  0
  1 42  1  0
  1 43  1  0
  1 44  1  0
  2 28  2  0
  2  3  1  0
  3  8  4  0
  3  4  4  0
  4  5  4  0
  4 26  1  0
  5  6  4  0
  5 45  1  0
  6  7  4  0
  7  8  4  0
  8  9  1  0
  9 10  1  0
  9 46  1  0
 10 15  4  0
 10 11  4  0
 11 12  4  0
 11 47  1  0
 12 13  4  0
 12 48  1  0
 13 14  4  0
 13 17  1  0
 14 15  4  0
 14 16  1  0
 15 49  1  0
 17 18  1  0
 18 19  1  0
 18 50  1  0
 18 51  1  0
 19 24  4  0
 19 20  4  0
 20 21  4  0
 20 52  1  0
 21 22  4  0
 21 53  1  0
 22 23  4  0
 22 54  1  0
 23 24  4  0
 23 25  1  0
 24 55  1  0
 26 27  1  0
 26 28  1  0
 28 29  1  0
 29 30  2  0
 29 31  1  0
 31 32  1  0
 31 56  1  0
 32 33  1  0
 32 57  1  0
 32 58  1  0
 33 34  1  0
 33 59  1  0
 33 60  1  0
 34 35  1  0
 34 61  1  0
 34 62  1  0
 35 40  1  0
 35 36  1  0
 36 37  1  0
 36 63  1  0
 36 64  1  0
 37 38  1  0
 37 65  1  0
 37 66  1  0
 38 39  1  0
 38 41  1  0
 38 74  1  0
 39 40  1  0
 39 67  1  0
 39 68  1  0
 40 69  1  0
 40 70  1  0
 41 71  1  0
 41 72  1  0
 41 73  1  0
M  END
> <Name>
CHEMBL1081849

$$$$
CHEMBL1082012
  SciTegic01042610103D

 71 75  0  0  0  0            999 V2000
   -0.6067    1.4748   -0.0386 C   0  0
   -0.4851   -0.0273   -0.0386 C   0  0
   -0.2244   -0.8407   -1.1595 C   0  0
   -0.1948   -2.1768   -0.7029 C   0  0
    0.0498   -3.1782   -1.6423 C   0  0
    0.2420   -2.8530   -2.9030 N   0  0
    0.2172   -1.6439   -3.3280 N   0  0
   -0.0054   -0.6096   -2.5306 C   0  0
   -0.0228    0.6796   -3.0386 N   0  0
    0.0733    0.8892   -4.4192 C   0  0
   -0.5147   -0.0087   -5.3008 C   0  0
   -0.4197    0.1984   -6.6629 C   0  0
    0.2626    1.3027   -7.1512 C   0  0
    0.8510    2.2006   -6.2714 C   0  0
    0.7515    1.9980   -4.9079 C   0  0
    1.7058    3.5820   -6.8835 Cl  0  0
    0.3555    1.5057   -8.4929 O   0  0
   -0.2732    0.5416   -9.3399 C   0  0
   -0.0668    0.9291  -10.7816 C   0  0
   -0.9825    1.7491  -11.4147 C   0  0
   -0.7945    2.1053  -12.7369 C   0  0
    0.3092    1.6417  -13.4279 C   0  0
    1.2267    0.8207  -12.7950 C   0  0
    1.0405    0.4694  -11.4685 C   0  0
    2.3056    0.3666  -13.4695 F   0  0
   -0.4303   -2.1542    0.6442 N   0  0
   -0.4671   -2.9309    1.2240 H   0  0
   -0.6014   -0.8426    1.0448 C   0  0
   -0.8696   -0.3991    2.4211 C   0  0
   -1.0067    0.7852    2.6627 O   0  0
   -0.9633   -1.3049    3.4147 N   0  0
   -1.2305   -0.8632    4.7858 C   0  0
   -1.2875   -2.0799    5.7116 C   0  0
   -1.5554   -1.6369    7.0864 N   0  0
   -0.4302   -0.8536    7.6160 C   0  0
   -0.7728   -0.3621    9.0241 C   0  0
   -1.0413   -1.5151    9.8936 N   0  0  2  0  0  0
   -2.1828   -2.2736    9.3653 C   0  0
   -1.8519   -2.7810    7.9600 C   0  0
   -1.3525   -1.0436   11.2496 C   0  0
    0.3741    1.9187    0.1318 H   0  0
   -0.9940    1.8080   -1.0014 H   0  0
   -1.2881    1.7841    0.7539 H   0  0
    0.0815   -4.2137   -1.3371 H   0  0
   -0.1014    1.4368   -2.4374 H   0  0
   -1.0458   -0.8690   -4.9211 H   0  0
   -0.8767   -0.5002   -7.3481 H   0  0
    1.2051    2.6990   -4.2230 H   0  0
    0.1655   -0.4401   -9.1612 H   0  0
   -1.3406    0.5078   -9.1221 H   0  0
   -1.8455    2.1112  -10.8758 H   0  0
   -1.5104    2.7458  -13.2304 H   0  0
    0.4556    1.9196  -14.4612 H   0  0
    1.7580   -0.1675  -10.9724 H   0  0
   -0.8539   -2.2493    3.2221 H   0  0
   -0.4348   -0.1942    5.1135 H   0  0
   -2.1843   -0.3366    4.8185 H   0  0
   -2.0832   -2.7489    5.3839 H   0  0
   -0.3337   -2.6064    5.6789 H   0  0
    0.4615   -1.4791    7.6561 H   0  0
   -0.2455    0.0024    6.9670 H   0  0
    0.0661    0.2072    9.4244 H   0  0
   -1.6566    0.2745    8.9817 H   0  0
   -2.3892   -3.1215   10.0185 H   0  0
   -3.0594   -1.6272    9.3211 H   0  0
   -2.7045   -3.3313    7.5619 H   0  0
   -0.9836   -3.4383    8.0058 H   0  0
   -2.2316   -0.4000   11.2177 H   0  0
   -1.5517   -1.8991   11.8950 H   0  0
   -0.5050   -0.4818   11.6423 H   0  0
   -0.2271   -2.1103    9.9235 H   0  0
  1  2  1  0
  1 41  1  0
  1 42  1  0
  1 43  1  0
  2 28  2  0
  2  3  1  0
  3  8  4  0
  3  4  4  0
  4  5  4  0
  4 26  1  0
  5  6  4  0
  5 44  1  0
  6  7  4  0
  7  8  4  0
  8  9  1  0
  9 10  1  0
  9 45  1  0
 10 15  4  0
 10 11  4  0
 11 12  4  0
 11 46  1  0
 12 13  4  0
 12 47  1  0
 13 14  4  0
 13 17  1  0
 14 15  4  0
 14 16  1  0
 15 48  1  0
 17 18  1  0
 18 19  1  0
 18 49  1  0
 18 50  1  0
 19 24  4  0
 19 20  4  0
 20 21  4  0
 20 51  1  0
 21 22  4  0
 21 52  1  0
 22 23  4  0
 22 53  1  0
 23 24  4  0
 23 25  1  0
 24 54  1  0
 26 27  1  0
 26 28  1  0
 28 29  1  0
 29 30  2  0
 29 31  1  0
 31 32  1  0
 31 55  1  0
 32 33  1  0
 32 56  1  0
 32 57  1  0
 33 34  1  0
 33 58  1  0
 33 59  1  0
 34 39  1  0
 34 35  1  0
 35 36  1  0
 35 60  1  0
 35 61  1  0
 36 37  1  0
 36 62  1  0
 36 63  1  0
 37 38  1  0
 37 40  1  0
 37 71  1  0
 38 39  1  0
 38 64  1  0
 38 65  1  0
 39 66  1  0
 39 67  1  0
 40 68  1  0
 40 69  1  0
 40 70  1  0
M  END
> <Name>
CHEMBL1082012

$$$$
CHEMBL434828
  SciTegic01042610103D

 45 48  0  0  0  0            999 V2000
   -2.2438   -2.7760   -0.6930 C   0  0
   -2.2296   -4.1520   -0.5454 C   0  0
   -1.0319   -4.8230   -0.4168 C   0  0
    0.1706   -4.1093   -0.4357 C   0  0
    0.1480   -2.7191   -0.5852 C   0  0
   -1.0579   -2.0626   -0.7127 C   0  0
    1.4535   -4.8178   -0.2986 C   0  0
    2.6110   -4.1263   -0.3173 C   0  0
    3.8867   -4.8308   -0.1809 C   0  0
    3.9028   -6.0408   -0.0505 O   0  0
    5.0436   -4.1396   -0.1996 N   0  0
    6.2519   -4.7958    0.0344 C   0  0
    7.4186   -4.0561    0.1220 C   0  0
    8.6166   -4.7338    0.3568 C   0  0
    8.5876   -6.1455    0.4949 C   0  0
    7.3560   -6.8048    0.3901 C   0  0
    6.2579   -6.1170    0.1738 N   0  0
    9.7403   -6.7895    0.7204 N   0  0
   10.8710   -6.1341    0.8120 C   0  0
   10.9735   -4.8198    0.6939 N   0  0
    9.9071   -4.0609    0.4689 C   0  0
   10.0148   -2.6911    0.3455 N   0  0
   11.2748   -2.0861    0.3472 C   0  0
   12.3694   -2.7560   -0.1854 C   0  0
   13.6131   -2.1560   -0.1823 C   0  0
   13.7704   -0.8896    0.3506 C   0  0
   12.6829   -0.2195    0.8823 C   0  0
   11.4342   -0.8120    0.8761 C   0  0
   12.9037    1.5114    1.6109 Br  0  0
   -3.1849   -2.2566   -0.7978 H   0  0
   -3.1592   -4.7017   -0.5306 H   0  0
   -1.0225   -5.8967   -0.3013 H   0  0
    1.0725   -2.1611   -0.6005 H   0  0
   -1.0770   -0.9890   -0.8285 H   0  0
    1.4678   -5.8915   -0.1829 H   0  0
    2.5967   -3.0526   -0.4330 H   0  0
    5.0359   -3.1858   -0.3759 H   0  0
    7.4028   -2.9819    0.0113 H   0  0
    7.3087   -7.8790    0.4913 H   0  0
   11.7727   -6.6996    0.9951 H   0  0
    9.2161   -2.1478    0.2575 H   0  0
   12.2477   -3.7453   -0.6012 H   0  0
   14.4640   -2.6765   -0.5963 H   0  0
   14.7443   -0.4228    0.3520 H   0  0
   10.5846   -0.2869    1.2869 H   0  0
  1  6  4  0
  1  2  4  0
  1 30  1  0
  2  3  4  0
  2 31  1  0
  3  4  4  0
  3 32  1  0
  4  5  4  0
  4  7  1  0
  5  6  4  0
  5 33  1  0
  6 34  1  0
  7  8  2  0
  7 35  1  0
  8  9  1  0
  8 36  1  0
  9 10  2  0
  9 11  1  0
 11 12  1  0
 11 37  1  0
 12 17  4  0
 12 13  4  0
 13 14  4  0
 13 38  1  0
 14 21  4  0
 14 15  4  0
 15 16  4  0
 15 18  4  0
 16 17  4  0
 16 39  1  0
 18 19  4  0
 19 20  4  0
 19 40  1  0
 20 21  4  0
 21 22  1  0
 22 23  1  0
 22 41  1  0
 23 28  4  0
 23 24  4  0
 24 25  4  0
 24 42  1  0
 25 26  4  0
 25 43  1  0
 26 27  4  0
 26 44  1  0
 27 28  4  0
 27 29  1  0
 28 45  1  0
M  END
> <Name>
CHEMBL434828

$$$$
CHEMBL553
  SciTegic01042610103D

 52 54  0  0  0  0            999 V2000
   29.5520   -1.9890   53.4960 C   0  0
   28.8410   -1.0220   53.4320 C   0  0
   27.9890    0.0940   53.3660 C   0  0
   26.6060   -0.1190   53.3230 C   0  0
   25.7250    0.9720   53.2580 C   0  0
   24.2890    0.7120   53.2150 N   0  0
   23.4100   -0.2170   53.9080 C   0  0
   22.0370   -0.3090   53.5720 C   0  0
   21.5010    0.4760   52.5460 C   0  0
   20.1430    0.3760   52.2180 C   0  0
   19.5890    1.2200   51.1200 O   0  0
   20.5500    1.3620   50.0410 C   0  0
   20.2350    2.6450   49.2620 C   0  0
   18.9900    2.4850   48.5430 O   0  0
   17.7120    2.6180   49.3990 C   0  0
   19.3010   -0.5350   52.9230 C   0  0
   17.8280   -0.6790   52.5970 O   0  0
   17.2270    0.6010   52.2200 C   0  0
   15.7030    0.4940   52.0660 C   0  0
   15.1080    0.1670   53.3350 O   0  0
   13.8430   -0.6950   53.2210 C   0  0
   19.8450   -1.3180   53.9420 C   0  0
   21.1990   -1.2220   54.2640 C   0  0
   21.7470   -2.0390   55.3190 N   0  0
   23.1170   -1.9340   55.6420 C   0  0
   23.9430   -1.0230   54.9400 N   0  0
   26.2340    2.2920   53.2360 C   0  0
   27.6250    2.5090   53.2790 C   0  0
   28.5080    1.4100   53.3440 C   0  0
   30.1970   -2.8660   53.5540 H   0  0
   26.2120   -1.1350   53.3400 H   0  0
   24.1150    0.4850   52.1840 H   0  0
   22.1420    1.1680   52.0000 H   0  0
   21.5570    1.4220   50.4540 H   0  0
   20.4810    0.5030   49.3740 H   0  0
   20.1470    3.4790   49.9580 H   0  0
   21.0390    2.8460   48.5540 H   0  0
   16.8350    2.4820   48.7670 H   0  0
   17.6810    3.6080   49.8550 H   0  0
   17.7170    1.8580   50.1810 H   0  0
   17.4520    1.3370   52.9920 H   0  0
   17.6550    0.9260   51.2720 H   0  0
   15.3070    1.4470   51.7150 H   0  0
   15.4660   -0.2870   51.3430 H   0  0
   13.4520   -0.9000   54.2170 H   0  0
   14.0870   -1.6350   52.7260 H   0  0
   13.0910   -0.1620   52.6390 H   0  0
   19.2070   -2.0100   54.4910 H   0  0
   23.5390   -2.5550   56.4320 H   0  0
   25.5510    3.1400   53.1860 H   0  0
   28.0190    3.5250   53.2620 H   0  0
   29.5850    1.5740   53.3770 H   0  0
  1  2  3  0
  1 30  1  0
  2  3  1  0
  3  4  4  0
  3 29  4  0
  4  5  4  0
  4 31  1  0
  5  6  1  0
  5 27  4  0
  6  7  1  0
  6 32  1  0
  7  8  4  0
  7 26  4  0
  8  9  4  0
  8 23  4  0
  9 10  4  0
  9 33  1  0
 10 11  1  0
 10 16  4  0
 11 12  1  0
 12 13  1  0
 12 34  1  0
 12 35  1  0
 13 14  1  0
 13 36  1  0
 13 37  1  0
 14 15  1  0
 15 38  1  0
 15 39  1  0
 15 40  1  0
 16 17  1  0
 16 22  4  0
 17 18  1  0
 18 19  1  0
 18 41  1  0
 18 42  1  0
 19 20  1  0
 19 43  1  0
 19 44  1  0
 20 21  1  0
 21 45  1  0
 21 46  1  0
 21 47  1  0
 22 23  4  0
 22 48  1  0
 23 24  4  0
 24 25  4  0
 25 26  4  0
 25 49  1  0
 27 28  4  0
 27 50  1  0
 28 29  4  0
 28 51  1  0
 29 52  1  0
M  END
> <Name>
CHEMBL553

$$$$
