CHEMBL303786
  DSViewer          3D                             0

 62 66  0  0  0  0  0  0  0  0999 V2000
   -0.8444    3.3235    1.4061 C   0  0
   -0.6693    1.8850    1.1652 N   0  3  2  0  0  0
   -1.9860    1.2415    1.0668 C   0  0
   -1.8042   -0.2539    0.7972 C   0  0
   -1.0265   -0.8548    1.8899 N   0  0
    0.2850   -0.2037    2.0167 C   0  0
    0.0860    1.2912    2.2762 C   0  0
   -0.8785   -2.3034    1.6960 C   0  0
   -0.2970   -2.9202    2.9420 C   0  0
   -0.9402   -3.4222    4.0197 C   0  0
   -0.1917   -3.9490    5.0686 C   0  0
    1.1722   -3.9375    4.9660 C   0  0
    1.4164   -3.1813    3.3676 S   0  0
   -0.8574   -4.5090    6.2689 C   0  0
   -2.2585   -4.5142    6.3482 C   0  0
   -2.8889   -5.0226    7.4404 C   0  0
   -2.1372   -5.5494    8.5020 C   0  0
   -0.7223   -5.5513    8.4357 C   0  0
   -0.0914   -5.0273    7.2989 C   0  0
    0.0009   -6.0542    9.4471 N   0  0
   -0.5594   -6.5553   10.5185 C   0  0
   -1.9544   -6.5948   10.6690 C   0  0
   -2.7706   -6.0839    9.6475 C   0  0
   -4.1460   -6.1034    9.7574 N   0  0
   -4.7456   -6.1806   11.0183 C   0  0
   -5.4536   -7.3180   11.3828 C   0  0
   -6.0465   -7.3913   12.6329 C   0  0
   -5.9320   -6.3279   13.5187 C   0  0
   -5.2270   -5.1954   13.1547 C   0  0
   -4.6288   -5.1211   11.9105 C   0  0
   -3.7375   -3.7013   11.4596 Cl  0  0
   -6.6751   -6.4203   15.0849 Cl  0  0
   -6.7407   -8.5036   12.9920 O   0  0
   -6.7215   -9.6031   12.0794 C   0  0
   -2.5389   -7.1506   11.8523 C   0  0
   -3.0026   -7.5915   12.7910 N   0  0
    0.1325    3.8015    1.4778 H   0  0
   -1.4049    3.7643    0.5817 H   0  0
   -1.3909    3.4721    2.3374 H   0  0
   -2.5282    1.3787    2.0023 H   0  0
   -2.5504    1.6919    0.2503 H   0  0
   -2.7809   -0.7343    0.7389 H   0  0
   -1.2740   -0.3917   -0.1451 H   0  0
    0.8326   -0.6475    2.8481 H   0  0
    0.8497   -0.3407    1.0944 H   0  0
    1.0577    1.7786    2.3564 H   0  0
   -0.4668    1.4282    3.2056 H   0  0
   -1.8546   -2.7445    1.4938 H   0  0
   -0.2133   -2.4911    0.8532 H   0  0
   -2.0192   -3.4143    4.0664 H   0  0
    1.9100   -4.2968    5.6681 H   0  0
   -2.8417   -4.1101    5.5340 H   0  0
   -3.9678   -5.0208    7.4910 H   0  0
    0.9863   -5.0242    7.2288 H   0  0
    0.0668   -6.9483   11.3058 H   0  0
   -4.6969   -6.0635    8.9600 H   0  0
   -5.5422   -8.1441   10.6928 H   0  0
   -5.1396   -4.3696   13.8451 H   0  0
   -7.2203   -9.3158   11.1538 H   0  0
   -5.6891   -9.8794   11.8651 H   0  0
   -7.2404  -10.4527   12.5231 H   0  0
   -0.1630    1.7477    0.3033 H   0  0
  1  2  1  0  0  0
  1 37  1  0  0  0
  1 38  1  0  0  0
  1 39  1  0  0  0
  2  7  1  0  0  0
  2  3  1  0  0  0
  2 62  1  0  0  0
  3  4  1  0  0  0
  3 40  1  0  0  0
  3 41  1  0  0  0
  4  5  1  0  0  0
  4 42  1  0  0  0
  4 43  1  0  0  0
  5  6  1  0  0  0
  5  8  1  0  0  0
  6  7  1  0  0  0
  6 44  1  0  0  0
  6 45  1  0  0  0
  7 46  1  0  0  0
  7 47  1  0  0  0
  8  9  1  0  0  0
  8 48  1  0  0  0
  8 49  1  0  0  0
  9 13  1  0  0  0
  9 10  2  0  0  0
 10 11  1  0  0  0
 10 50  1  0  0  0
 11 12  2  0  0  0
 11 14  1  0  0  0
 12 13  1  0  0  0
 12 51  1  0  0  0
 14 19  2  0  0  0
 14 15  1  0  0  0
 15 16  2  0  0  0
 15 52  1  0  0  0
 16 17  1  0  0  0
 16 53  1  0  0  0
 17 23  2  0  0  0
 17 18  1  0  0  0
 18 19  1  0  0  0
 18 20  2  0  0  0
 19 54  1  0  0  0
 20 21  1  0  0  0
 21 22  2  0  0  0
 21 55  1  0  0  0
 22 23  1  0  0  0
 22 35  1  0  0  0
 23 24  1  0  0  0
 24 25  1  0  0  0
 24 56  1  0  0  0
 25 30  2  0  0  0
 25 26  1  0  0  0
 26 27  2  0  0  0
 26 57  1  0  0  0
 27 28  1  0  0  0
 27 33  1  0  0  0
 28 29  2  0  0  0
 28 32  1  0  0  0
 29 30  1  0  0  0
 29 58  1  0  0  0
 30 31  1  0  0  0
 33 34  1  0  0  0
 34 59  1  0  0  0
 34 60  1  0  0  0
 34 61  1  0  0  0
 35 36  3  0  0  0
M  CHG  1   2   1
M  END
$$$$
CHEMBL338194
  SciTegic01042613403D

 70 73  0  0  0  0            999 V2000
   -0.0517    1.6764    0.7356 C   0  0
    0.0135    0.2578    0.8940 O   0  0
   -1.1563   -0.4287    0.7966 C   0  0
   -2.3179    0.2456    0.5518 C   0  0
   -3.5259   -0.4597    0.4508 C   0  0
   -3.5373   -1.8674    0.6029 C   0  0
   -2.3305   -2.5377    0.8543 C   0  0
   -1.1576   -1.8228    0.9428 C   0  0
    0.0105   -2.4747    1.1799 O   0  0
   -0.0562   -3.8953    1.3195 C   0  0
    1.3463   -4.4485    1.5802 C   0  0
    1.2750   -5.9695    1.7295 C   0  0
    2.6215   -6.5006    1.9798 N   0  0
    3.4890   -6.3099    0.8089 C   0  0
    4.8951   -6.8210    1.1307 C   0  0
    4.8292   -8.2447    1.4861 N   0  3  2  0  0  0
    3.9793   -8.4164    2.6717 C   0  0
    2.5657   -7.9185    2.3627 C   0  0
    6.1814   -8.7393    1.7775 C   0  0
    6.1300  -10.2482    2.0257 C   0  0
    5.7339  -10.9151    0.8255 O   0  0
   -4.6890   -2.5480    0.5066 N   0  0
   -5.8298   -1.9512    0.2724 C   0  0
   -5.9120   -0.5591    0.1082 C   0  0
   -4.7438    0.2131    0.1974 C   0  0
   -4.7819    1.5843    0.0419 N   0  0
   -5.9752    2.2798    0.2600 C   0  0
   -6.6239    2.8969   -0.8010 C   0  0
   -7.8064    3.5848   -0.5816 C   0  0
   -8.3406    3.6560    0.6983 C   0  0
   -7.6936    3.0414    1.7546 C   0  0
   -6.5165    2.3492    1.5385 C   0  0
   -5.7107    1.5722    2.8653 Cl  0  0
   -9.8223    4.5181    0.9727 Cl  0  0
   -8.4433    4.1904   -1.6188 O   0  0
   -7.9013    3.9807   -2.9243 C   0  0
   -7.1748    0.0661   -0.1470 C   0  0
   -8.1766    0.5620   -0.3496 N   0  0
    0.9478    2.0996    0.8360 H   0  0
   -0.4494    1.9140   -0.2511 H   0  0
   -0.7032    2.0979    1.5011 H   0  0
   -2.3065    1.3194    0.4366 H   0  0
   -2.3213   -3.6112    0.9729 H   0  0
   -0.7077   -4.1480    2.1559 H   0  0
   -0.4546   -4.3320    0.4037 H   0  0
    1.9979   -4.1957    0.7437 H   0  0
    1.7447   -4.0117    2.4959 H   0  0
    0.6234   -6.2222    2.5660 H   0  0
    0.8766   -6.4062    0.8138 H   0  0
    3.0850   -6.8654   -0.0374 H   0  0
    3.5357   -5.2498    0.5596 H   0  0
    5.5365   -6.6935    0.2587 H   0  0
    5.3041   -6.2560    1.9683 H   0  0
    3.9419   -9.4716    2.9421 H   0  0
    4.3931   -7.8432    3.5014 H   0  0
    1.9387   -8.0320    3.2470 H   0  0
    2.1465   -8.5006    1.5420 H   0  0
    6.8344   -8.5326    0.9296 H   0  0
    6.5683   -8.2381    2.6647 H   0  0
    7.1160  -10.6004    2.3286 H   0  0
    5.4094  -10.4622    2.8150 H   0  0
    5.6799  -11.8770    0.9095 H   0  0
   -6.7300   -2.5439    0.2034 H   0  0
   -3.9809    2.0653   -0.2186 H   0  0
   -6.2072    2.8411   -1.7959 H   0  0
   -8.1106    3.0987    2.7492 H   0  0
   -6.9074    4.4245   -2.9807 H   0  0
   -7.8333    2.9109   -3.1219 H   0  0
   -8.5499    4.4466   -3.6661 H   0  0
    4.4397   -8.7659    0.7150 H   0  0
  1  2  1  0
  1 39  1  0
  1 40  1  0
  1 41  1  0
  2  3  1  0
  3  8  2  0
  3  4  1  0
  4  5  2  0
  4 42  1  0
  5 25  1  0
  5  6  1  0
  6  7  2  0
  6 22  1  0
  7  8  1  0
  7 43  1  0
  8  9  1  0
  9 10  1  0
 10 11  1  0
 10 44  1  0
 10 45  1  0
 11 12  1  0
 11 46  1  0
 11 47  1  0
 12 13  1  0
 12 48  1  0
 12 49  1  0
 13 18  1  0
 13 14  1  0
 14 15  1  0
 14 50  1  0
 14 51  1  0
 15 16  1  0
 15 52  1  0
 15 53  1  0
 16 17  1  0
 16 19  1  0
 16 70  1  0
 17 18  1  0
 17 54  1  0
 17 55  1  0
 18 56  1  0
 18 57  1  0
 19 20  1  0
 19 58  1  0
 19 59  1  0
 20 21  1  0
 20 60  1  0
 20 61  1  0
 21 62  1  0
 22 23  2  0
 23 24  1  0
 23 63  1  0
 24 25  2  0
 24 37  1  0
 25 26  1  0
 26 27  1  0
 26 64  1  0
 27 32  2  0
 27 28  1  0
 28 29  2  0
 28 65  1  0
 29 30  1  0
 29 35  1  0
 30 31  2  0
 30 34  1  0
 31 32  1  0
 31 66  1  0
 32 33  1  0
 35 36  1  0
 36 67  1  0
 36 68  1  0
 36 69  1  0
 37 38  3  0
M  CHG  1  16   1
M  END
> <Name>
CHEMBL338194

$$$$
CHEMBL323775
  SciTegic01042613403D

 64 68  0  0  0  0            999 V2000
    0.3551    0.1168   -0.0427 C   0  0
    0.1270   -1.0965   -0.8315 N   0  0
   -1.1510   -1.5665   -1.0002 C   0  0
   -1.3880   -2.7342   -1.7574 C   0  0
   -0.3089   -3.4299   -2.3486 C   0  0
    0.9629   -2.9534   -2.1748 C   0  0
    1.1734   -1.7362   -1.3882 C   0  0
    2.3011   -1.3025   -1.2330 O   0  0
    2.1152   -3.6597   -2.7817 C   0  0
    2.7712   -4.6676   -2.0739 C   0  0
    3.8444   -5.3225   -2.6457 C   0  0
    4.2695   -4.9809   -3.9169 C   0  0
    3.6236   -3.9827   -4.6239 C   0  0
    2.5455   -3.3240   -4.0660 C   0  0
    1.7321   -2.0762   -4.9576 Cl  0  0
    2.2399   -5.0970   -0.4780 Cl  0  0
   -2.7097   -3.1809   -1.9060 C   0  0
   -3.6778   -2.4915   -1.3322 N   0  0
   -3.4173   -1.3964   -0.6265 C   0  0
   -2.1870   -0.9362   -0.4584 N   0  0
   -4.4685   -0.7123   -0.0474 N   0  0
   -5.7645   -1.2389   -0.1079 C   0  0
   -5.9641   -2.6083    0.0070 C   0  0
   -7.2426   -3.1267   -0.0522 C   0  0
   -8.3274   -2.2800   -0.2270 C   0  0
   -8.1288   -0.9120   -0.3423 C   0  0
   -6.8515   -0.3913   -0.2771 C   0  0
   -9.5860   -2.7913   -0.2857 O   0  0
  -10.6561   -1.8618   -0.4672 C   0  0
  -11.9861   -2.6169   -0.5085 C   0  0
  -12.2151   -3.2765    0.7840 N   0  3
  -13.4123   -4.1211    0.6953 C   0  0
  -13.6095   -4.8730    2.0133 C   0  0
  -13.7791   -3.8621    3.1510 C   0  0
  -12.5579   -2.9388    3.1866 C   0  0
  -12.3997   -2.2585    1.8252 C   0  0
    1.4216    0.3408   -0.0208 H   0  0
   -0.1820    0.9505   -0.4950 H   0  0
   -0.0047   -0.0381    0.9745 H   0  0
   -0.4848   -4.3239   -2.9285 H   0  0
    4.3530   -6.1027   -2.0989 H   0  0
    5.1097   -5.4956   -4.3592 H   0  0
    3.9605   -3.7208   -5.6160 H   0  0
   -2.9302   -4.0699   -2.4783 H   0  0
   -4.3087    0.1327    0.4012 H   0  0
   -5.1195   -3.2677    0.1424 H   0  0
   -7.3980   -4.1918    0.0371 H   0  0
   -8.9739   -0.2535   -0.4791 H   0  0
   -6.6974    0.6742   -0.3624 H   0  0
  -10.6662   -1.1532    0.3610 H   0  0
  -10.5147   -1.3234   -1.4043 H   0  0
  -12.7963   -1.9153   -0.7070 H   0  0
  -11.9536   -3.3672   -1.2986 H   0  0
  -14.2838   -3.4960    0.5003 H   0  0
  -13.2914   -4.8379   -0.1169 H   0  0
  -14.4998   -5.4982    1.9460 H   0  0
  -12.7386   -5.4987    2.2091 H   0  0
  -14.6787   -3.2703    2.9816 H   0  0
  -13.8633   -4.3919    4.0999 H   0  0
  -12.6966   -2.1814    3.9581 H   0  0
  -11.6652   -3.5243    3.4069 H   0  0
  -11.5312   -1.6002    1.8471 H   0  0
  -13.2927   -1.6731    1.6061 H   0  0
  -11.4175   -3.8502    1.0136 H   0  0
  1  2  1  0
  1 37  1  0
  1 38  1  0
  1 39  1  0
  2  7  1  0
  2  3  1  0
  3 20  2  0
  3  4  1  0
  4  5  1  0
  4 17  2  0
  5  6  2  0
  5 40  1  0
  6  7  1  0
  6  9  1  0
  7  8  2  0
  9 14  2  0
  9 10  1  0
 10 11  2  0
 10 16  1  0
 11 12  1  0
 11 41  1  0
 12 13  2  0
 12 42  1  0
 13 14  1  0
 13 43  1  0
 14 15  1  0
 17 18  1  0
 17 44  1  0
 18 19  2  0
 19 20  1  0
 19 21  1  0
 21 22  1  0
 21 45  1  0
 22 27  2  0
 22 23  1  0
 23 24  2  0
 23 46  1  0
 24 25  1  0
 24 47  1  0
 25 26  2  0
 25 28  1  0
 26 27  1  0
 26 48  1  0
 27 49  1  0
 28 29  1  0
 29 30  1  0
 29 50  1  0
 29 51  1  0
 30 31  1  0
 30 52  1  0
 30 53  1  0
 31 36  1  0
 31 32  1  0
 31 64  1  0
 32 33  1  0
 32 54  1  0
 32 55  1  0
 33 34  1  0
 33 56  1  0
 33 57  1  0
 34 35  1  0
 34 58  1  0
 34 59  1  0
 35 36  1  0
 35 60  1  0
 35 61  1  0
 36 62  1  0
 36 63  1  0
M  CHG  1  31   1
M  END
> <Name>
CHEMBL323775

$$$$
CHEMBL569073
  SciTegic01042613403D

 59 63  0  0  0  0            999 V2000
    3.3547   -2.8787   -0.5538 C   0  0
    1.9274   -2.8109   -0.5628 O   0  0
    1.3578   -1.9054   -1.4018 C   0  0
    2.1482   -1.1818   -2.2807 C   0  0
    1.5643   -0.2579   -3.1361 C   0  0
    0.1881   -0.0609   -3.1091 C   0  0
   -0.5969   -0.7843   -2.2313 C   0  0
   -0.0165   -1.7093   -1.3824 C   0  0
   -1.0069   -2.6211   -0.2863 Cl  0  0
   -0.5442    1.0946   -4.1779 Cl  0  0
    2.3589    0.4741   -4.0238 N   0  0
    2.4989    1.8371   -3.8612 C   0  0
    2.8654    2.6686   -4.9458 C   0  0
    3.0972    2.1319   -6.2213 C   0  0
    3.4481    2.9504   -7.2493 C   0  0
    3.5824    4.3324   -7.0493 C   0  0
    3.3602    4.8884   -5.8019 C   0  0
    2.9966    4.0616   -4.7292 C   0  0
    2.7751    4.5800   -3.5122 N   0  0
    2.4347    3.8346   -2.4921 C   0  0
    2.2770    2.4449   -2.6163 C   0  0
    1.8977    1.6557   -1.4832 C   0  0
    1.5968    1.0296   -0.5843 N   0  0
    3.9666    5.2055   -8.1852 C   0  0
    4.1902    4.6630   -9.4541 C   0  0
    4.5466    5.5200  -10.4808 C   0  0
    4.6691    6.8731  -10.2210 C   0  0
    4.4522    7.3559   -9.0129 N   0  0
    4.1049    6.5803   -8.0062 C   0  0
    5.0570    7.8102  -11.3356 C   0  0
    3.8459    8.3883  -11.9331 N   0  0
    3.0500    7.3565  -12.6136 C   0  0
    1.7713    7.9895  -13.1687 C   0  0
    2.1192    9.0680  -14.0411 O   0  0
    2.8941   10.0914  -13.4108 C   0  0
    4.1842    9.4797  -12.8581 C   0  0
    3.7092   -3.2048   -1.5316 H   0  0
    3.7638   -1.8937   -0.3290 H   0  0
    3.6799   -3.5892    0.2061 H   0  0
    3.2170   -1.3364   -2.2996 H   0  0
   -1.6656   -0.6300   -2.2110 H   0  0
    2.8117    0.0237   -4.7539 H   0  0
    2.9974    1.0693   -6.3866 H   0  0
    3.6255    2.5322   -8.2291 H   0  0
    3.4654    5.9532   -5.6555 H   0  0
    2.2678    4.3001   -1.5320 H   0  0
    4.0877    3.6022   -9.6287 H   0  0
    4.7275    5.1364  -11.4740 H   0  0
    3.9308    7.0134   -7.0323 H   0  0
    5.6827    8.6090  -10.9375 H   0  0
    5.6106    7.2601  -12.0966 H   0  0
    3.6301    6.9303  -13.4321 H   0  0
    2.7891    6.5712  -11.9041 H   0  0
    1.2056    7.2407  -13.7232 H   0  0
    1.1656    8.3681  -12.3454 H   0  0
    3.1405   10.8628  -14.1403 H   0  0
    2.3211   10.5312  -12.5945 H   0  0
    4.7512   10.2443  -12.3271 H   0  0
    4.7825    9.0875  -13.6805 H   0  0
  1  2  1  0
  1 37  1  0
  1 38  1  0
  1 39  1  0
  2  3  1  0
  3  8  2  0
  3  4  1  0
  4  5  2  0
  4 40  1  0
  5  6  1  0
  5 11  1  0
  6  7  2  0
  6 10  1  0
  7  8  1  0
  7 41  1  0
  8  9  1  0
 11 12  1  0
 11 42  1  0
 12 21  2  0
 12 13  1  0
 13 18  2  0
 13 14  1  0
 14 15  2  0
 14 43  1  0
 15 16  1  0
 15 44  1  0
 16 17  2  0
 16 24  1  0
 17 18  1  0
 17 45  1  0
 18 19  1  0
 19 20  2  0
 20 21  1  0
 20 46  1  0
 21 22  1  0
 22 23  3  0
 24 29  2  0
 24 25  1  0
 25 26  2  0
 25 47  1  0
 26 27  1  0
 26 48  1  0
 27 28  2  0
 27 30  1  0
 28 29  1  0
 29 49  1  0
 30 31  1  0
 30 50  1  0
 30 51  1  0
 31 36  1  0
 31 32  1  0
 32 33  1  0
 32 52  1  0
 32 53  1  0
 33 34  1  0
 33 54  1  0
 33 55  1  0
 34 35  1  0
 35 36  1  0
 35 56  1  0
 35 57  1  0
 36 58  1  0
 36 59  1  0
M  END
> <Name>
CHEMBL569073

$$$$
CHEMBL103839
  SciTegic01042613403D

 60 64  0  0  0  0            999 V2000
   -2.0823   -2.9403   -2.6145 C   0  0
   -1.3785   -2.8508   -1.3740 O   0  0
   -1.8431   -1.9538   -0.4642 C   0  0
   -3.0172   -1.2603   -0.7117 C   0  0
   -3.4893   -0.3450    0.2187 C   0  0
   -2.7831   -0.1263    1.3964 C   0  0
   -1.6126   -0.8197    1.6397 C   0  0
   -1.1444   -1.7363    0.7157 C   0  0
    0.3225   -2.6105    1.0283 Cl  0  0
   -3.3716    1.0186    2.5612 Cl  0  0
   -4.6733    0.3567   -0.0281 N   0  0
   -4.6367    1.7204   -0.2354 C   0  0
   -5.7798    2.5242   -0.0134 C   0  0
   -6.9865    1.9586    0.4254 C   0  0
   -8.0725    2.7508    0.6326 C   0  0
   -8.0011    4.1342    0.4115 C   0  0
   -6.8239    4.7185   -0.0212 C   0  0
   -5.6928    3.9190   -0.2402 C   0  0
   -4.5416    4.4651   -0.6591 N   0  0
   -3.4697    3.7455   -0.8722 C   0  0
   -3.4632    2.3563   -0.6677 C   0  0
   -2.2730    1.5959   -0.9034 C   0  0
   -1.3287    0.9926   -1.0903 N   0  0
   -9.1986    4.9783    0.6431 C   0  0
   -9.1392    6.3531    0.4207 C   0  0
  -10.2565    7.1333    0.6374 C   0  0
  -11.4341    6.5535    1.0746 C   0  0
  -11.4987    5.1900    1.2975 C   0  0
  -10.3890    4.3990    1.0785 C   0  0
  -12.7849    4.5660    1.7742 C   0  0
  -13.5947    4.1671    0.6153 N   0  0
  -14.0444    5.3434   -0.1432 C   0  0
  -14.8321    4.8811   -1.3719 C   0  0
  -15.9237    4.0588   -0.9505 O   0  0
  -15.5216    2.9035   -0.2094 C   0  0
  -14.7409    3.3458    1.0310 C   0  0
   -1.5689   -3.6403   -3.2737 H   0  0
   -3.0978   -3.2916   -2.4315 H   0  0
   -2.1170   -1.9574   -3.0843 H   0  0
   -3.5638   -1.4316   -1.6273 H   0  0
   -1.0649   -0.6487    2.5546 H   0  0
   -5.5204   -0.1151   -0.0535 H   0  0
   -7.0531    0.8946    0.5982 H   0  0
   -8.9990    2.3104    0.9703 H   0  0
   -6.7763    5.7843   -0.1890 H   0  0
   -2.5667    4.2326   -1.2093 H   0  0
   -8.2204    6.8067    0.0797 H   0  0
  -10.2115    8.1986    0.4657 H   0  0
  -12.3061    7.1680    1.2430 H   0  0
  -10.4418    3.3338    1.2485 H   0  0
  -12.5602    3.6881    2.3799 H   0  0
  -13.3391    5.2885    2.3733 H   0  0
  -14.6838    5.9607    0.4879 H   0  0
  -13.1786    5.9232   -0.4629 H   0  0
  -15.2162    5.7501   -1.9062 H   0  0
  -14.1779    4.3087   -2.0294 H   0  0
  -16.4044    2.3423    0.0970 H   0  0
  -14.8874    2.2736   -0.8332 H   0  0
  -14.3835    2.4675    1.5685 H   0  0
  -15.3914    3.9312    1.6809 H   0  0
  1  2  1  0
  1 37  1  0
  1 38  1  0
  1 39  1  0
  2  3  1  0
  3  8  2  0
  3  4  1  0
  4  5  2  0
  4 40  1  0
  5  6  1  0
  5 11  1  0
  6  7  2  0
  6 10  1  0
  7  8  1  0
  7 41  1  0
  8  9  1  0
 11 12  1  0
 11 42  1  0
 12 21  2  0
 12 13  1  0
 13 18  2  0
 13 14  1  0
 14 15  2  0
 14 43  1  0
 15 16  1  0
 15 44  1  0
 16 17  2  0
 16 24  1  0
 17 18  1  0
 17 45  1  0
 18 19  1  0
 19 20  2  0
 20 21  1  0
 20 46  1  0
 21 22  1  0
 22 23  3  0
 24 29  2  0
 24 25  1  0
 25 26  2  0
 25 47  1  0
 26 27  1  0
 26 48  1  0
 27 28  2  0
 27 49  1  0
 28 29  1  0
 28 30  1  0
 29 50  1  0
 30 31  1  0
 30 51  1  0
 30 52  1  0
 31 36  1  0
 31 32  1  0
 32 33  1  0
 32 53  1  0
 32 54  1  0
 33 34  1  0
 33 55  1  0
 33 56  1  0
 34 35  1  0
 35 36  1  0
 35 57  1  0
 35 58  1  0
 36 59  1  0
 36 60  1  0
M  END
> <Name>
CHEMBL103839

$$$$
CHEMBL567875
  SciTegic01042613403D

 64 68  0  0  0  0            999 V2000
   -0.0294   -0.6666   -1.6380 C   0  0
    0.0856   -2.1101   -1.3907 N   0  0
   -1.2327   -2.7585   -1.4335 C   0  0
   -1.0632   -4.2658   -1.2312 C   0  0
   -0.4169   -4.5166    0.0638 N   0  3
    0.9085   -3.8838    0.0822 C   0  0
    0.7554   -2.3733   -0.1092 C   0  0
   -0.2708   -5.9643    0.2656 C   0  0
    0.2789   -6.2264    1.6441 C   0  0
    1.6496   -6.2906    1.8511 C   0  0
    2.1137   -6.5328    3.1324 C   0  0
    1.1934   -6.7029    4.1648 C   0  0
   -0.1096   -6.6344    3.9247 N   0  0
   -0.5776   -6.3995    2.7158 C   0  0
    1.6744   -6.9631    5.5435 C   0  0
    3.0525   -7.0302    5.7977 C   0  0
    3.5150   -7.2682    7.0545 C   0  0
    2.6105   -7.4489    8.1117 C   0  0
    1.2168   -7.3836    7.8703 C   0  0
    0.7602   -7.1319    6.5681 C   0  0
    0.3480   -7.5551    8.8771 N   0  0
    0.7435   -7.7860   10.1030 C   0  0
    2.1054   -7.8673   10.4339 C   0  0
    3.0680   -7.6972    9.4274 C   0  0
    4.4163   -7.7702    9.7111 N   0  0
    4.8555   -8.4562   10.8477 C   0  0
    5.4405   -7.7602   11.8969 C   0  0
    5.8746   -8.4431   13.0216 C   0  0
    5.7241   -9.8216   13.0977 C   0  0
    5.1413  -10.5139   12.0521 C   0  0
    4.7017   -9.8352   10.9308 C   0  0
    3.9640  -10.7065    9.6229 Cl  0  0
    6.2687  -10.6767   14.5069 Cl  0  0
    6.4481   -7.7639   14.0501 O   0  0
    6.4669   -6.3382   13.9557 C   0  0
    2.5079   -8.1208   11.7846 C   0  0
    2.8272   -8.3218   12.8561 N   0  0
    0.9655   -0.2224   -1.6659 H   0  0
   -0.5286   -0.5002   -2.5925 H   0  0
   -0.6105   -0.2063   -0.8389 H   0  0
   -1.8629   -2.3538   -0.6415 H   0  0
   -1.6987   -2.5716   -2.4009 H   0  0
   -2.0411   -4.7469   -1.2483 H   0  0
   -0.4442   -4.6724   -2.0309 H   0  0
    1.3923   -4.0816    1.0387 H   0  0
    1.5174   -4.2923   -0.7243 H   0  0
    1.7398   -1.9052   -0.1105 H   0  0
    0.1580   -1.9622    0.7046 H   0  0
   -1.2438   -6.4452    0.1650 H   0  0
    0.4130   -6.3681   -0.4810 H   0  0
    2.3388   -6.1549    1.0307 H   0  0
    3.1741   -6.5894    3.3292 H   0  0
   -1.6448   -6.3461    2.5589 H   0  0
    3.7530   -6.8918    4.9875 H   0  0
    4.5780   -7.3184    7.2384 H   0  0
   -0.2991   -7.0743    6.3657 H   0  0
    0.0041   -7.9168   10.8792 H   0  0
    5.0595   -7.3455    9.1222 H   0  0
    5.5572   -6.6883   11.8363 H   0  0
    5.0253  -11.5859   12.1136 H   0  0
    6.8737   -5.9184   14.8757 H   0  0
    7.0897   -6.0381   13.1130 H   0  0
    5.4517   -5.9705   13.8063 H   0  0
   -0.9843   -4.1299    0.8031 H   0  0
  1  2  1  0
  1 38  1  0
  1 39  1  0
  1 40  1  0
  2  7  1  0
  2  3  1  0
  3  4  1  0
  3 41  1  0
  3 42  1  0
  4  5  1  0
  4 43  1  0
  4 44  1  0
  5  6  1  0
  5  8  1  0
  5 64  1  0
  6  7  1  0
  6 45  1  0
  6 46  1  0
  7 47  1  0
  7 48  1  0
  8  9  1  0
  8 49  1  0
  8 50  1  0
  9 14  2  0
  9 10  1  0
 10 11  2  0
 10 51  1  0
 11 12  1  0
 11 52  1  0
 12 13  2  0
 12 15  1  0
 13 14  1  0
 14 53  1  0
 15 20  2  0
 15 16  1  0
 16 17  2  0
 16 54  1  0
 17 18  1  0
 17 55  1  0
 18 24  2  0
 18 19  1  0
 19 20  1  0
 19 21  2  0
 20 56  1  0
 21 22  1  0
 22 23  2  0
 22 57  1  0
 23 24  1  0
 23 36  1  0
 24 25  1  0
 25 26  1  0
 25 58  1  0
 26 31  2  0
 26 27  1  0
 27 28  2  0
 27 59  1  0
 28 29  1  0
 28 34  1  0
 29 30  2  0
 29 33  1  0
 30 31  1  0
 30 60  1  0
 31 32  1  0
 34 35  1  0
 35 61  1  0
 35 62  1  0
 35 63  1  0
 36 37  3  0
M  CHG  1   5   1
M  END
> <Name>
CHEMBL567875

$$$$
CHEMBL1087215
  SciTegic01042613403D

 63 66  0  0  0  0            999 V2000
   -7.0684   11.3539    3.8175 C   0  0
   -8.1660   10.7065    3.0867 N   0  3
   -8.6548   11.6099    2.0365 C   0  0
   -7.6802    9.4623    2.4752 C   0  0
   -7.2931    8.4882    3.5579 C   0  0
   -5.9985    8.4777    4.0601 C   0  0
   -5.6824    7.5688    5.0532 C   0  0
   -6.6722    6.6966    5.5147 C   0  0
   -7.8999    6.7404    5.0061 N   0  0
   -8.2257    7.6011    4.0639 C   0  0
   -6.3529    5.7218    6.5716 C   0  0
   -7.3011    4.8808    7.0189 C   0  0
   -6.9820    3.9066    8.0752 C   0  0
   -5.7018    3.8643    8.6101 C   0  0
   -5.4007    2.9365    9.6157 C   0  0
   -6.4121    2.0547   10.0703 C   0  0
   -7.6994    2.1146    9.5165 C   0  0
   -7.9807    3.0263    8.5412 C   0  0
   -9.2304    3.0836    8.0118 O   0  0
  -10.1960    2.1649    8.5272 C   0  0
   -6.1012    1.1201   11.0863 C   0  0
   -4.7939    1.1162   11.5948 C   0  0
   -3.8545    2.0272   11.0842 C   0  0
   -4.1685    2.8815   10.1447 N   0  0
   -4.4210    0.1932   12.6242 C   0  0
   -4.1251   -0.5390   13.4408 N   0  0
   -7.0536    0.2410   11.5618 N   0  0
   -7.9615    0.6563   12.5407 C   0  0
   -7.9835    1.9826   12.9505 C   0  0
   -8.8847    2.3909   13.9204 C   0  0
   -9.7640    1.4736   14.4808 C   0  0
   -9.7411    0.1528   14.0724 C   0  0
   -8.8471   -0.2571   13.1008 C   0  0
   -8.8257   -1.9146   12.5851 Cl  0  0
  -10.8930    1.9858   15.6961 Cl  0  0
   -8.9080    3.6890   14.3237 O   0  0
   -8.0609    4.6014   13.6223 C   0  0
   -6.2564   11.5814    3.1269 H   0  0
   -7.4288   12.2771    4.2713 H   0  0
   -6.7056   10.6836    4.5968 H   0  0
   -7.8428   11.8373    1.3459 H   0  0
   -9.4692   11.1295    1.4941 H   0  0
   -9.0153   12.5331    2.4902 H   0  0
   -8.4685    9.0277    1.8604 H   0  0
   -6.8116    9.6781    1.8531 H   0  0
   -5.2548    9.1640    3.6831 H   0  0
   -4.6850    7.5332    5.4660 H   0  0
   -9.2343    7.6113    3.6778 H   0  0
   -5.3568    5.6827    6.9872 H   0  0
   -8.2972    4.9199    6.6034 H   0  0
   -4.9416    4.5430    8.2526 H   0  0
   -8.4689    1.4415    9.8646 H   0  0
  -11.1488    2.3165    8.0200 H   0  0
   -9.8528    1.1442    8.3581 H   0  0
  -10.3229    2.3331    9.5966 H   0  0
   -2.8487    2.0227   11.4774 H   0  0
   -7.0929   -0.6647   11.2168 H   0  0
   -7.2989    2.6949   12.5141 H   0  0
  -10.4256   -0.5588   14.5100 H   0  0
   -7.0193    4.3145   13.7667 H   0  0
   -8.3008    4.5761   12.5593 H   0  0
   -8.2165    5.6098   14.0059 H   0  0
   -8.9177   10.4960    3.7259 H   0  0
  1  2  1  0
  1 38  1  0
  1 39  1  0
  1 40  1  0
  2  3  1  0
  2  4  1  0
  2 63  1  0
  3 41  1  0
  3 42  1  0
  3 43  1  0
  4  5  1  0
  4 44  1  0
  4 45  1  0
  5 10  2  0
  5  6  1  0
  6  7  2  0
  6 46  1  0
  7  8  1  0
  7 47  1  0
  8  9  2  0
  8 11  1  0
  9 10  1  0
 10 48  1  0
 11 12  2  0
 11 49  1  0
 12 13  1  0
 12 50  1  0
 13 18  2  0
 13 14  1  0
 14 15  2  0
 14 51  1  0
 15 24  1  0
 15 16  1  0
 16 17  2  0
 16 21  1  0
 17 18  1  0
 17 52  1  0
 18 19  1  0
 19 20  1  0
 20 53  1  0
 20 54  1  0
 20 55  1  0
 21 22  2  0
 21 27  1  0
 22 23  1  0
 22 25  1  0
 23 24  2  0
 23 56  1  0
 25 26  3  0
 27 28  1  0
 27 57  1  0
 28 33  2  0
 28 29  1  0
 29 30  2  0
 29 58  1  0
 30 31  1  0
 30 36  1  0
 31 32  2  0
 31 35  1  0
 32 33  1  0
 32 59  1  0
 33 34  1  0
 36 37  1  0
 37 60  1  0
 37 61  1  0
 37 62  1  0
M  CHG  1   2   1
M  END
> <Name>
CHEMBL1087215

$$$$
CHEMBL1087340
  SciTegic01042613403D

 64 67  0  0  0  0            999 V2000
   -6.6962   11.5709    3.6442 C   0  0
   -7.8194   10.9693    2.9130 N   0  3
   -8.2476   11.8769    1.8403 C   0  0
   -7.3951    9.6890    2.3310 C   0  0
   -7.0727    8.7169    3.4364 C   0  0
   -5.7872    8.6544    3.9451 C   0  0
   -5.4845    7.7670    4.9564 C   0  0
   -6.4799    6.9299    5.4679 C   0  0
   -7.7759    6.9990    4.9495 C   0  0
   -8.0648    7.8951    3.9417 C   0  0
   -6.1643    5.9787    6.5482 C   0  0
   -7.1239    5.1754    7.0375 C   0  0
   -6.8086    4.2252    8.1167 C   0  0
   -5.5200    4.1669    8.6293 C   0  0
   -5.2225    3.2622    9.6566 C   0  0
   -6.2463    2.4196   10.1558 C   0  0
   -7.5422    2.4951    9.6237 C   0  0
   -7.8194    3.3842    8.6269 C   0  0
   -9.0773    3.4568    8.1187 O   0  0
  -10.0550    2.5780    8.6788 C   0  0
   -5.9391    1.5083   11.1933 C   0  0
   -4.6229    1.4868   11.6781 C   0  0
   -3.6714    2.3587   11.1235 C   0  0
   -3.9823    3.1924   10.1646 N   0  0
   -4.2532    0.5857   12.7278 C   0  0
   -3.9599   -0.1292   13.5606 N   0  0
   -6.9036    0.6675   11.7122 N   0  0
   -7.7823    1.1339   12.6948 C   0  0
   -7.7644    2.4719   13.0648 C   0  0
   -8.6364    2.9308   14.0388 C   0  0
   -9.5265    2.0524   14.6430 C   0  0
   -9.5436    0.7200   14.2737 C   0  0
   -8.6789    0.2596   13.2982 C   0  0
   -8.7078   -1.4123   12.8318 Cl  0  0
  -10.6185    2.6278   15.8637 Cl  0  0
   -8.6206    4.2404   14.4033 O   0  0
   -7.7656    5.1105   13.6591 C   0  0
   -5.8658   11.7407    2.9588 H   0  0
   -7.0110   12.5209    4.0760 H   0  0
   -6.3785   10.8974    4.4401 H   0  0
   -7.4173   12.0467    1.1549 H   0  0
   -9.0810   11.4305    1.2978 H   0  0
   -8.5624   12.8269    2.2722 H   0  0
   -8.1992    9.2855    1.7154 H   0  0
   -6.5096    9.8455    1.7150 H   0  0
   -5.0191    9.3020    3.5488 H   0  0
   -4.4807    7.7189    5.3520 H   0  0
   -8.5501    6.3549    5.3396 H   0  0
   -9.0668    7.9525    3.5429 H   0  0
   -5.1618    5.9273    6.9466 H   0  0
   -8.1263    5.2268    6.6391 H   0  0
   -4.7504    4.8157    8.2378 H   0  0
   -8.3211    1.8519   10.0057 H   0  0
  -11.0132    2.7382    8.1845 H   0  0
   -9.7400    1.5446    8.5343 H   0  0
  -10.1577    2.7809    9.7448 H   0  0
   -2.6587    2.3408   11.4984 H   0  0
   -6.9716   -0.2467   11.3951 H   0  0
   -7.0716    3.1539   12.5945 H   0  0
  -10.2363    0.0387   14.7452 H   0  0
   -6.7286    4.8022   13.7921 H   0  0
   -8.0269    5.0600   12.6021 H   0  0
   -7.8891    6.1332   14.0153 H   0  0
   -8.5881   10.8120    3.5474 H   0  0
  1  2  1  0
  1 38  1  0
  1 39  1  0
  1 40  1  0
  2  3  1  0
  2  4  1  0
  2 64  1  0
  3 41  1  0
  3 42  1  0
  3 43  1  0
  4  5  1  0
  4 44  1  0
  4 45  1  0
  5 10  2  0
  5  6  1  0
  6  7  2  0
  6 46  1  0
  7  8  1  0
  7 47  1  0
  8  9  2  0
  8 11  1  0
  9 10  1  0
  9 48  1  0
 10 49  1  0
 11 12  2  0
 11 50  1  0
 12 13  1  0
 12 51  1  0
 13 18  2  0
 13 14  1  0
 14 15  2  0
 14 52  1  0
 15 24  1  0
 15 16  1  0
 16 17  2  0
 16 21  1  0
 17 18  1  0
 17 53  1  0
 18 19  1  0
 19 20  1  0
 20 54  1  0
 20 55  1  0
 20 56  1  0
 21 22  2  0
 21 27  1  0
 22 23  1  0
 22 25  1  0
 23 24  2  0
 23 57  1  0
 25 26  3  0
 27 28  1  0
 27 58  1  0
 28 33  2  0
 28 29  1  0
 29 30  2  0
 29 59  1  0
 30 31  1  0
 30 36  1  0
 31 32  2  0
 31 35  1  0
 32 33  1  0
 32 60  1  0
 33 34  1  0
 36 37  1  0
 37 61  1  0
 37 62  1  0
 37 63  1  0
M  CHG  1   2   1
M  END
> <Name>
CHEMBL1087340

$$$$
CHEMBL219557
  SciTegic01042613403D

 66 70  0  0  0  0            999 V2000
   -9.5409   -1.8874    1.9436 C   0  0
   -9.5916   -3.0314    2.8637 N   0  0
   -9.9721   -2.6025    4.2169 C   0  0
  -10.0714   -3.8279    5.1281 C   0  0
   -8.7762   -4.5199    5.1612 N   0  3
   -8.4214   -4.9637    3.8067 C   0  0
   -8.3084   -3.7478    2.8846 C   0  0
   -8.8669   -5.6859    6.0502 C   0  0
   -7.5082   -6.3246    6.1812 C   0  0
   -6.5895   -6.0198    7.1128 C   0  0
   -5.4388   -6.8910    6.8473 C   0  0
   -5.7855   -7.6418    5.7690 C   0  0
   -7.0234   -7.2934    5.3898 O   0  0
   -4.1621   -6.9415    7.5999 C   0  0
   -3.4758   -5.7702    7.8657 C   0  0
   -2.2690   -5.8184    8.5776 C   0  0
   -1.7728   -7.0713    9.0135 C   0  0
   -2.4864   -8.2458    8.7326 C   0  0
   -3.6619   -8.1797    8.0426 C   0  0
   -4.3527   -9.3196    7.7771 O   0  0
   -3.7915  -10.5442    8.2538 C   0  0
   -0.5547   -7.1145    9.7315 C   0  0
    0.1044   -5.9005    9.9765 C   0  0
   -0.4612   -4.7040    9.5065 C   0  0
   -1.5899   -4.6926    8.8450 N   0  0
    1.3409   -5.8815   10.6986 C   0  0
    2.3218   -5.8664   11.2714 N   0  0
   -0.0319   -8.3121   10.1770 N   0  0
   -0.4900   -8.8731   11.3731 C   0  0
   -1.5513   -8.2903   12.0525 C   0  0
   -2.0027   -8.8486   13.2375 C   0  0
   -1.3934   -9.9895   13.7435 C   0  0
   -0.3362  -10.5689   13.0663 C   0  0
    0.1129  -10.0182   11.8805 C   0  0
    1.4351  -10.7529   11.0284 Cl  0  0
   -1.9595  -10.6886   15.2282 Cl  0  0
   -3.0414   -8.2796   13.9049 O   0  0
   -3.6973   -7.1809   13.2688 C   0  0
   -9.3214   -2.2408    0.9361 H   0  0
  -10.5030   -1.3751    1.9474 H   0  0
   -8.7606   -1.1973    2.2646 H   0  0
   -9.2180   -1.9192    4.6074 H   0  0
  -10.9372   -2.0973    4.1804 H   0  0
  -10.3397   -3.5106    6.1358 H   0  0
  -10.8352   -4.5046    4.7449 H   0  0
   -7.4665   -5.4884    3.8348 H   0  0
   -9.1937   -5.6346    3.4303 H   0  0
   -8.0598   -4.0781    1.8760 H   0  0
   -7.5269   -3.0833    3.2531 H   0  0
   -9.2149   -5.3674    7.0328 H   0  0
   -9.5689   -6.4075    5.6325 H   0  0
   -6.6795   -5.2833    7.8976 H   0  0
   -5.1696   -8.3945    5.2995 H   0  0
   -3.8676   -4.8229    7.5260 H   0  0
   -2.1077   -9.2010    9.0651 H   0  0
   -4.4406  -11.3743    7.9750 H   0  0
   -2.8061  -10.6890    7.8110 H   0  0
   -3.6996  -10.5036    9.3392 H   0  0
    0.0476   -3.7705    9.6964 H   0  0
    0.6532   -8.7643    9.6603 H   0  0
   -2.0239   -7.4029   11.6582 H   0  0
    0.1364  -11.4557   13.4621 H   0  0
   -2.9941   -6.3564   13.1517 H   0  0
   -4.0592   -7.4918   12.2888 H   0  0
   -4.5389   -6.8565   13.8808 H   0  0
   -8.0671   -3.8897    5.5050 H   0  0
  1  2  1  0
  1 39  1  0
  1 40  1  0
  1 41  1  0
  2  7  1  0
  2  3  1  0
  3  4  1  0
  3 42  1  0
  3 43  1  0
  4  5  1  0
  4 44  1  0
  4 45  1  0
  5  6  1  0
  5  8  1  0
  5 66  1  0
  6  7  1  0
  6 46  1  0
  6 47  1  0
  7 48  1  0
  7 49  1  0
  8  9  1  0
  8 50  1  0
  8 51  1  0
  9 13  1  0
  9 10  2  0
 10 11  1  0
 10 52  1  0
 11 12  2  0
 11 14  1  0
 12 13  1  0
 12 53  1  0
 14 19  2  0
 14 15  1  0
 15 16  2  0
 15 54  1  0
 16 25  1  0
 16 17  1  0
 17 18  2  0
 17 22  1  0
 18 19  1  0
 18 55  1  0
 19 20  1  0
 20 21  1  0
 21 56  1  0
 21 57  1  0
 21 58  1  0
 22 23  2  0
 22 28  1  0
 23 24  1  0
 23 26  1  0
 24 25  2  0
 24 59  1  0
 26 27  3  0
 28 29  1  0
 28 60  1  0
 29 34  2  0
 29 30  1  0
 30 31  2  0
 30 61  1  0
 31 32  1  0
 31 37  1  0
 32 33  2  0
 32 36  1  0
 33 34  1  0
 33 62  1  0
 34 35  1  0
 37 38  1  0
 38 63  1  0
 38 64  1  0
 38 65  1  0
M  CHG  1   5   1
M  END
> <Name>
CHEMBL219557

$$$$
CHEMBL1088679
  SciTegic01042613403D

 58 61  0  0  0  0            999 V2000
    0.6197    1.6929   -0.3235 C   0  0
    0.7616    0.2771   -0.4556 O   0  0
    1.2800   -0.3926    0.6069 C   0  0
    1.6313    0.2928    1.7335 C   0  0
    2.1668   -0.3939    2.8328 C   0  0
    2.3434   -1.7981    2.7756 C   0  0
    1.9781   -2.4875    1.6113 C   0  0
    1.4452   -1.7898    0.5393 C   0  0
    1.0534   -2.5156   -0.6856 C   0  0
    1.2069   -3.8316   -0.7546 C   0  0
    0.8070   -4.5723   -2.0046 C   0  0
    1.9492   -5.3536   -2.4974 N   0  0
    3.0335   -4.4716   -2.9532 C   0  0
    4.2235   -5.3243   -3.4012 C   0  0
    3.7968   -6.2301   -4.4225 O   0  0
    2.7420   -7.1046   -4.0125 C   0  0
    1.5371   -6.2699   -3.5706 C   0  0
    2.8542   -2.4582    3.8262 N   0  0
    3.2041   -1.8448    4.9274 C   0  0
    3.0637   -0.4547    5.0722 C   0  0
    2.5375    0.2966    4.0111 C   0  0
    2.3840    1.6647    4.1137 N   0  0
    3.1503    2.3872    5.0334 C   0  0
    2.5391    2.9955    6.1215 C   0  0
    3.3013    3.7106    7.0311 C   0  0
    4.6745    3.8178    6.8532 C   0  0
    5.2823    3.2117    5.7692 C   0  0
    4.5258    2.4924    4.8627 C   0  0
    5.2930    1.7266    3.5067 Cl  0  0
    5.6289    4.7145    7.9928 Cl  0  0
    2.7051    4.3075    8.0971 O   0  0
    1.3097    4.0611    8.2820 C   0  0
    3.4546    0.1888    6.2903 C   0  0
    3.7648    0.6994    7.2565 N   0  0
    1.5969    2.1408   -0.1434 H   0  0
    0.1956    2.1026   -1.2402 H   0  0
   -0.0418    1.9152    0.5139 H   0  0
    1.4975    1.3636    1.7783 H   0  0
    2.1066   -3.5582    1.5518 H   0  0
    0.6418   -1.9752   -1.5252 H   0  0
    1.6184   -4.3720    0.0850 H   0  0
   -0.0222   -5.2432   -1.7798 H   0  0
    0.4994   -3.8575   -2.7678 H   0  0
    2.6834   -3.8670   -3.7898 H   0  0
    3.3404   -3.8196   -2.1354 H   0  0
    5.0079   -4.6771   -3.7933 H   0  0
    4.6073   -5.8887   -2.5514 H   0  0
    2.4551   -7.7448   -4.8467 H   0  0
    3.0828   -7.7207   -3.1804 H   0  0
    0.7516   -6.9305   -3.2036 H   0  0
    1.1631   -5.6940   -4.4172 H   0  0
    3.6106   -2.4213    5.7452 H   0  0
    1.7446    2.1249    3.5477 H   0  0
    1.4711    2.9116    6.2585 H   0  0
    6.3503    3.2967    5.6327 H   0  0
    0.7522    4.4843    7.4464 H   0  0
    1.1337    2.9865    8.3292 H   0  0
    0.9790    4.5247    9.2114 H   0  0
  1  2  1  0
  1 35  1  0
  1 36  1  0
  1 37  1  0
  2  3  1  0
  3  8  2  0
  3  4  1  0
  4  5  2  0
  4 38  1  0
  5 21  1  0
  5  6  1  0
  6  7  2  0
  6 18  1  0
  7  8  1  0
  7 39  1  0
  8  9  1  0
  9 10  2  0
  9 40  1  0
 10 11  1  0
 10 41  1  0
 11 12  1  0
 11 42  1  0
 11 43  1  0
 12 17  1  0
 12 13  1  0
 13 14  1  0
 13 44  1  0
 13 45  1  0
 14 15  1  0
 14 46  1  0
 14 47  1  0
 15 16  1  0
 16 17  1  0
 16 48  1  0
 16 49  1  0
 17 50  1  0
 17 51  1  0
 18 19  2  0
 19 20  1  0
 19 52  1  0
 20 21  2  0
 20 33  1  0
 21 22  1  0
 22 23  1  0
 22 53  1  0
 23 28  2  0
 23 24  1  0
 24 25  2  0
 24 54  1  0
 25 26  1  0
 25 31  1  0
 26 27  2  0
 26 30  1  0
 27 28  1  0
 27 55  1  0
 28 29  1  0
 31 32  1  0
 32 56  1  0
 32 57  1  0
 32 58  1  0
 33 34  3  0
M  END
> <Name>
CHEMBL1088679

$$$$
CHEMBL128612
  SciTegic01042613403D

 65 68  0  0  0  0            999 V2000
   -0.0517    1.6764    0.7356 C   0  0
    0.0135    0.2578    0.8940 O   0  0
   -1.1563   -0.4287    0.7966 C   0  0
   -2.3179    0.2456    0.5518 C   0  0
   -3.5259   -0.4597    0.4508 C   0  0
   -3.5373   -1.8674    0.6029 C   0  0
   -2.3305   -2.5377    0.8543 C   0  0
   -1.1576   -1.8228    0.9428 C   0  0
    0.0105   -2.4747    1.1799 O   0  0
   -0.0562   -3.8953    1.3195 C   0  0
    1.3463   -4.4485    1.5802 C   0  0
    1.2750   -5.9695    1.7295 C   0  0
    2.6775   -6.5227    1.9902 C   0  0
    2.6090   -7.9830    2.1336 N   0  3
    1.8296   -8.3216    3.3324 C   0  0
    1.7595   -9.8436    3.4795 C   0  0
    3.0868  -10.3722    3.5491 O   0  0
    3.8937  -10.0484    2.4134 C   0  0
    3.9678   -8.5268    2.2644 C   0  0
   -4.6890   -2.5480    0.5066 N   0  0
   -5.8298   -1.9512    0.2724 C   0  0
   -5.9120   -0.5591    0.1082 C   0  0
   -4.7438    0.2131    0.1974 C   0  0
   -4.7819    1.5843    0.0419 N   0  0
   -5.9752    2.2798    0.2600 C   0  0
   -6.6239    2.8969   -0.8010 C   0  0
   -7.8064    3.5848   -0.5816 C   0  0
   -8.3406    3.6560    0.6983 C   0  0
   -7.6936    3.0414    1.7546 C   0  0
   -6.5165    2.3492    1.5385 C   0  0
   -5.7107    1.5722    2.8653 Cl  0  0
   -9.8223    4.5181    0.9727 Cl  0  0
   -8.4433    4.1904   -1.6188 O   0  0
   -7.9013    3.9807   -2.9243 C   0  0
   -7.1748    0.0661   -0.1470 C   0  0
   -8.1766    0.5620   -0.3496 N   0  0
    0.9478    2.0996    0.8360 H   0  0
   -0.4494    1.9140   -0.2511 H   0  0
   -0.7032    2.0979    1.5011 H   0  0
   -2.3065    1.3194    0.4366 H   0  0
   -2.3213   -3.6112    0.9729 H   0  0
   -0.7077   -4.1480    2.1559 H   0  0
   -0.4546   -4.3320    0.4037 H   0  0
    1.9979   -4.1957    0.7437 H   0  0
    1.7447   -4.0117    2.4959 H   0  0
    0.6234   -6.2222    2.5660 H   0  0
    0.8766   -6.4062    0.8138 H   0  0
    3.3290   -6.2699    1.1538 H   0  0
    3.0759   -6.0859    2.9060 H   0  0
    2.3105   -7.8931    4.2118 H   0  0
    0.8214   -7.9188    3.2364 H   0  0
    1.2186  -10.0967    4.3914 H   0  0
    1.2430  -10.2691    2.6191 H   0  0
    4.8974  -10.4497    2.5538 H   0  0
    3.4502  -10.4809    1.5166 H   0  0
    4.5468   -8.2762    1.3755 H   0  0
    4.4478   -8.0982    3.1441 H   0  0
   -6.7300   -2.5439    0.2034 H   0  0
   -3.9809    2.0653   -0.2186 H   0  0
   -6.2072    2.8411   -1.7959 H   0  0
   -8.1106    3.0987    2.7492 H   0  0
   -6.9074    4.4245   -2.9807 H   0  0
   -7.8333    2.9109   -3.1219 H   0  0
   -8.5499    4.4466   -3.6661 H   0  0
    2.1644   -8.3805    1.3198 H   0  0
  1  2  1  0
  1 37  1  0
  1 38  1  0
  1 39  1  0
  2  3  1  0
  3  8  2  0
  3  4  1  0
  4  5  2  0
  4 40  1  0
  5 23  1  0
  5  6  1  0
  6  7  2  0
  6 20  1  0
  7  8  1  0
  7 41  1  0
  8  9  1  0
  9 10  1  0
 10 11  1  0
 10 42  1  0
 10 43  1  0
 11 12  1  0
 11 44  1  0
 11 45  1  0
 12 13  1  0
 12 46  1  0
 12 47  1  0
 13 14  1  0
 13 48  1  0
 13 49  1  0
 14 19  1  0
 14 15  1  0
 14 65  1  0
 15 16  1  0
 15 50  1  0
 15 51  1  0
 16 17  1  0
 16 52  1  0
 16 53  1  0
 17 18  1  0
 18 19  1  0
 18 54  1  0
 18 55  1  0
 19 56  1  0
 19 57  1  0
 20 21  2  0
 21 22  1  0
 21 58  1  0
 22 23  2  0
 22 35  1  0
 23 24  1  0
 24 25  1  0
 24 59  1  0
 25 30  2  0
 25 26  1  0
 26 27  2  0
 26 60  1  0
 27 28  1  0
 27 33  1  0
 28 29  2  0
 28 32  1  0
 29 30  1  0
 29 61  1  0
 30 31  1  0
 33 34  1  0
 34 62  1  0
 34 63  1  0
 34 64  1  0
 35 36  3  0
M  CHG  1  14   1
M  END
> <Name>
CHEMBL128612

$$$$
CHEMBL219014
  SciTegic01042613403D

 62 66  0  0  0  0            999 V2000
    0.4672    3.3157    1.7715 C   0  0
    0.3349    1.8714    1.5382 N   0  3  2  0  0  0
   -1.0867    1.5019    1.5504 C   0  0
   -1.2260    0.0007    1.2887 C   0  0
   -0.4997   -0.7442    2.3268 N   0  0
    0.9206   -0.3663    2.3432 C   0  0
    1.0422    1.1380    2.5962 C   0  0
   -0.6568   -2.1931    2.1426 C   0  0
   -0.1133   -2.9147    3.3488 C   0  0
   -0.7585   -3.2832    4.4860 C   0  0
   -0.0580   -3.9419    5.4714 C   0  0
    1.2718   -4.2044    5.2708 C   0  0
    1.5422   -3.5121    3.6474 S   0  0
    2.2304   -4.8872    6.1628 C   0  0
    1.7990   -5.3713    7.4097 C   0  0
    2.6658   -6.0020    8.2451 C   0  0
    4.0063   -6.1752    7.8656 C   0  0
    4.4565   -5.6933    6.6117 C   0  0
    3.5475   -5.0505    5.7608 C   0  0
    5.7362   -5.8569    6.2447 N   0  0
    6.6073   -6.4575    7.0149 C   0  0
    6.2492   -6.9660    8.2733 C   0  0
    4.9250   -6.8282    8.7188 C   0  0
    4.5331   -7.3141    9.9496 N   0  0
    5.4832   -7.5203   10.9547 C   0  0
    5.7757   -8.8089   11.3807 C   0  0
    6.7180   -9.0098   12.3764 C   0  0
    7.3679   -7.9228   12.9464 C   0  0
    7.0755   -6.6398   12.5217 C   0  0
    6.1400   -6.4358   11.5244 C   0  0
    5.7808   -4.8243   10.9881 Cl  0  0
    8.5484   -8.1752   14.1940 Cl  0  0
    7.0059  -10.2705   12.7957 O   0  0
    6.3866  -11.3467   12.0884 C   0  0
    7.2244   -7.6189    9.0939 C   0  0
    7.9979   -8.1368    9.7450 N   0  0
    1.5219    3.5903    1.7612 H   0  0
   -0.0577    3.8601    0.9865 H   0  0
    0.0354    3.5684    2.7399 H   0  0
   -1.5163    1.7426    2.5228 H   0  0
   -1.6129    2.0565    0.7734 H   0  0
   -2.2800   -0.2764    1.3125 H   0  0
   -0.8088   -0.2383    0.3105 H   0  0
    1.4327   -0.9111    3.1363 H   0  0
    1.3732   -0.6113    1.3823 H   0  0
    2.0943    1.4228    2.5946 H   0  0
    0.6017    1.3806    3.5633 H   0  0
   -1.7136   -2.4315    2.0222 H   0  0
   -0.1098   -2.5078    1.2539 H   0  0
   -1.8077   -3.0620    4.6156 H   0  0
   -0.5472   -4.2455    6.3852 H   0  0
    0.7690   -5.2405    7.7070 H   0  0
    2.3234   -6.3696    9.2011 H   0  0
    3.8719   -4.6802    4.7995 H   0  0
    7.6264   -6.5648    6.6738 H   0  0
    3.5986   -7.5125   10.1175 H   0  0
    5.2694   -9.6533   10.9369 H   0  0
    7.5819   -5.7961   12.9667 H   0  0
    5.3071  -11.3027   12.2326 H   0  0
    6.6149  -11.2623   11.0259 H   0  0
    6.7654  -12.2960   12.4671 H   0  0
    0.7350    1.6376    0.6420 H   0  0
  1  2  1  0
  1 37  1  0
  1 38  1  0
  1 39  1  0
  2  7  1  0
  2  3  1  0
  2 62  1  0
  3  4  1  0
  3 40  1  0
  3 41  1  0
  4  5  1  0
  4 42  1  0
  4 43  1  0
  5  6  1  0
  5  8  1  0
  6  7  1  0
  6 44  1  0
  6 45  1  0
  7 46  1  0
  7 47  1  0
  8  9  1  0
  8 48  1  0
  8 49  1  0
  9 13  1  0
  9 10  2  0
 10 11  1  0
 10 50  1  0
 11 12  2  0
 11 51  1  0
 12 13  1  0
 12 14  1  0
 14 19  2  0
 14 15  1  0
 15 16  2  0
 15 52  1  0
 16 17  1  0
 16 53  1  0
 17 23  2  0
 17 18  1  0
 18 19  1  0
 18 20  2  0
 19 54  1  0
 20 21  1  0
 21 22  2  0
 21 55  1  0
 22 23  1  0
 22 35  1  0
 23 24  1  0
 24 25  1  0
 24 56  1  0
 25 30  2  0
 25 26  1  0
 26 27  2  0
 26 57  1  0
 27 28  1  0
 27 33  1  0
 28 29  2  0
 28 32  1  0
 29 30  1  0
 29 58  1  0
 30 31  1  0
 33 34  1  0
 34 59  1  0
 34 60  1  0
 34 61  1  0
 35 36  3  0
M  CHG  1   2   1
M  END
> <Name>
CHEMBL219014

$$$$
CHEMBL128326
  SciTegic01042613403D

 69 72  0  0  0  0            999 V2000
    8.2067   -0.7782   11.6077 C   0  0
    7.1568   -1.0153   10.6079 N   0  3  2  0  0  0
    5.8534   -0.6156   11.1801 C   0  0
    4.8887   -0.3505   10.0519 C   0  0
    4.0530   -1.5950    9.7047 C   0  0
    4.8615   -2.8357    9.7183 N   0  0
    6.1686   -2.6815    9.1205 C   0  0
    7.1893   -2.3611   10.2292 C   0  0
    4.1282   -3.9488    9.1008 C   0  0
    2.9119   -4.2976    9.9609 C   0  0
    2.1481   -5.4569    9.3178 C   0  0
    1.0120   -5.7827   10.1210 O   0  0
    0.2210   -6.7986    9.6875 C   0  0
    0.5403   -7.4611    8.5239 C   0  0
   -0.2751   -8.5107    8.0741 C   0  0
   -1.4171   -8.8700    8.8302 C   0  0
   -1.7196   -8.1790   10.0126 C   0  0
   -0.9082   -7.1646   10.4329 C   0  0
   -1.2012   -6.4998   11.5823 O   0  0
   -2.3654   -6.9204   12.2964 C   0  0
   -2.2370   -9.9283    8.3742 C   0  0
   -1.8710  -10.5734    7.1831 C   0  0
   -0.7208  -10.1503    6.4978 C   0  0
    0.0203   -9.1679    6.9429 N   0  0
   -2.6620  -11.6521    6.6720 C   0  0
   -3.2895  -12.5079    6.2665 N   0  0
   -3.3601  -10.3142    9.0781 N   0  0
   -3.2387  -11.1847   10.1657 C   0  0
   -1.9812  -11.5673   10.6127 C   0  0
   -1.8644  -12.4300   11.6906 C   0  0
   -3.0045  -12.9103   12.3217 C   0  0
   -4.2564  -12.5286   11.8758 C   0  0
   -4.3768  -11.6635   10.8042 C   0  0
   -5.9499  -11.1801   10.2516 Cl  0  0
   -2.8576  -13.9916   13.6719 Cl  0  0
   -0.6343  -12.8065   12.1299 O   0  0
    0.4938  -12.1820   11.5140 C   0  0
    9.1791   -1.0170   11.1770 H   0  0
    8.1905    0.2688   11.9103 H   0  0
    8.0294   -1.4106   12.4776 H   0  0
    5.4687   -1.4186   11.8088 H   0  0
    5.9776    0.2894   11.7749 H   0  0
    4.2174    0.4578   10.3419 H   0  0
    5.4506   -0.0434    9.1697 H   0  0
    3.2450   -1.6918   10.4299 H   0  0
    3.6212   -1.4654    8.7123 H   0  0
    6.4524   -3.6070    8.6194 H   0  0
    6.1458   -1.8654    8.3983 H   0  0
    8.1894   -2.6029    9.8694 H   0  0
    6.9702   -2.9786   11.1003 H   0  0
    3.7969   -3.6572    8.1042 H   0  0
    4.7820   -4.8178    9.0266 H   0  0
    3.2432   -4.5893   10.9575 H   0  0
    2.2581   -3.4286   10.0351 H   0  0
    1.8168   -5.1653    8.3211 H   0  0
    2.8019   -6.3260    9.2435 H   0  0
    1.4149   -7.1738    7.9592 H   0  0
   -2.5902   -8.4509   10.5909 H   0  0
   -2.4833   -6.3093   13.1912 H   0  0
   -3.2430   -6.8060   11.6600 H   0  0
   -2.2579   -7.9667   12.5824 H   0  0
   -0.4405  -10.6482    5.5813 H   0  0
   -4.2334   -9.9816    8.8182 H   0  0
   -1.0954  -11.1934   10.1208 H   0  0
   -5.1416  -12.9037   12.3680 H   0  0
    0.5145  -12.4338   10.4537 H   0  0
    0.4184  -11.1007   11.6293 H   0  0
    1.4090  -12.5351   11.9892 H   0  0
    7.3443   -0.4441    9.7975 H   0  0
  1  2  1  0
  1 38  1  0
  1 39  1  0
  1 40  1  0
  2  8  1  0
  2  3  1  0
  2 69  1  0
  3  4  1  0
  3 41  1  0
  3 42  1  0
  4  5  1  0
  4 43  1  0
  4 44  1  0
  5  6  1  0
  5 45  1  0
  5 46  1  0
  6  7  1  0
  6  9  1  0
  7  8  1  0
  7 47  1  0
  7 48  1  0
  8 49  1  0
  8 50  1  0
  9 10  1  0
  9 51  1  0
  9 52  1  0
 10 11  1  0
 10 53  1  0
 10 54  1  0
 11 12  1  0
 11 55  1  0
 11 56  1  0
 12 13  1  0
 13 18  2  0
 13 14  1  0
 14 15  2  0
 14 57  1  0
 15 24  1  0
 15 16  1  0
 16 17  2  0
 16 21  1  0
 17 18  1  0
 17 58  1  0
 18 19  1  0
 19 20  1  0
 20 59  1  0
 20 60  1  0
 20 61  1  0
 21 22  2  0
 21 27  1  0
 22 23  1  0
 22 25  1  0
 23 24  2  0
 23 62  1  0
 25 26  3  0
 27 28  1  0
 27 63  1  0
 28 33  2  0
 28 29  1  0
 29 30  2  0
 29 64  1  0
 30 31  1  0
 30 36  1  0
 31 32  2  0
 31 35  1  0
 32 33  1  0
 32 65  1  0
 33 34  1  0
 36 37  1  0
 37 66  1  0
 37 67  1  0
 37 68  1  0
M  CHG  1   2   1
M  END
> <Name>
CHEMBL128326

$$$$
CHEMBL391738
  SciTegic01042613403D

 64 67  0  0  0  0            999 V2000
    6.8656   -8.3428   -8.9629 C   0  0
    5.9114   -8.8174   -7.9519 N   0  3  2  0  0  0
    5.3421   -7.6668   -7.2381 C   0  0
    4.3340   -8.1596   -6.1976 C   0  0
    5.0103   -9.0589   -5.2521 N   0  0
    5.6068  -10.2032   -5.9556 C   0  0
    6.6044   -9.6935   -6.9981 C   0  0
    4.0870   -9.5096   -4.2021 C   0  0
    4.8737  -10.2332   -3.1074 C   0  0
    3.9485  -10.6848   -2.0553 C   0  0
    3.2106  -11.0450   -1.2162 C   0  0
    2.3106  -11.4843   -0.1927 C   0  0
    0.9543  -11.2274   -0.3130 C   0  0
    0.0746  -11.6584    0.6893 C   0  0
    0.5902  -12.3517    1.8117 C   0  0
    1.9665  -12.6013    1.9126 C   0  0
    2.8099  -12.1795    0.9260 C   0  0
    4.1420  -12.4278    1.0260 O   0  0
    4.5845  -13.1371    2.1849 C   0  0
   -0.3030  -12.7844    2.8203 C   0  0
   -1.6665  -12.5007    2.6533 C   0  0
   -2.0892  -11.8073    1.5073 C   0  0
   -1.2419  -11.4189    0.5894 N   0  0
   -2.6176  -12.9140    3.6408 C   0  0
   -3.3722  -13.2419    4.4241 N   0  0
    0.1527  -13.4641    3.9323 N   0  0
    0.3806  -14.8420    3.8647 C   0  0
    0.2628  -15.5073    2.6518 C   0  0
    0.4893  -16.8727    2.5882 C   0  0
    0.8336  -17.5732    3.7369 C   0  0
    0.9507  -16.9097    4.9444 C   0  0
    0.7310  -15.5464    5.0106 C   0  0
    0.8858  -14.7151    6.5268 Cl  0  0
    1.1168  -19.2841    3.6568 Cl  0  0
    0.3742  -17.5265    1.4019 O   0  0
    0.1353  -16.7277    0.2414 C   0  0
    7.2872   -9.1965   -9.4936 H   0  0
    6.3516   -7.6926   -9.6708 H   0  0
    7.6661   -7.7872   -8.4744 H   0  0
    6.1405   -7.1177   -6.7388 H   0  0
    4.8394   -7.0108   -7.9488 H   0  0
    3.9225   -7.3069   -5.6576 H   0  0
    3.5284   -8.6970   -6.6979 H   0  0
    6.1238  -10.8414   -5.2391 H   0  0
    4.8221  -10.7743   -6.4519 H   0  0
    7.0375  -10.5401   -7.5309 H   0  0
    7.3963   -9.1341   -6.5001 H   0  0
    3.5760   -8.6477   -3.7731 H   0  0
    3.3524  -10.1906   -4.6320 H   0  0
    5.3846  -11.0951   -3.5364 H   0  0
    5.6083   -9.5523   -2.6774 H   0  0
    0.5769  -10.6972   -1.1749 H   0  0
    2.3584  -13.1297    2.7691 H   0  0
    5.6657  -13.2683    2.1398 H   0  0
    4.3242  -12.5707    3.0790 H   0  0
    4.1012  -14.1135    2.2198 H   0  0
   -3.1395  -11.5901    1.3805 H   0  0
    0.3147  -12.9857    4.7604 H   0  0
   -0.0053  -14.9614    1.7593 H   0  0
    1.2182  -17.4567    5.8364 H   0  0
   -0.8244  -16.2206    0.3406 H   0  0
    0.9287  -15.9872    0.1404 H   0  0
    0.1194  -17.3660   -0.6420 H   0  0
    5.1707   -9.3321   -8.4042 H   0  0
  1  2  1  0
  1 37  1  0
  1 38  1  0
  1 39  1  0
  2  7  1  0
  2  3  1  0
  2 64  1  0
  3  4  1  0
  3 40  1  0
  3 41  1  0
  4  5  1  0
  4 42  1  0
  4 43  1  0
  5  6  1  0
  5  8  1  0
  6  7  1  0
  6 44  1  0
  6 45  1  0
  7 46  1  0
  7 47  1  0
  8  9  1  0
  8 48  1  0
  8 49  1  0
  9 10  1  0
  9 50  1  0
  9 51  1  0
 10 11  3  0
 11 12  1  0
 12 17  2  0
 12 13  1  0
 13 14  2  0
 13 52  1  0
 14 23  1  0
 14 15  1  0
 15 16  2  0
 15 20  1  0
 16 17  1  0
 16 53  1  0
 17 18  1  0
 18 19  1  0
 19 54  1  0
 19 55  1  0
 19 56  1  0
 20 21  2  0
 20 26  1  0
 21 22  1  0
 21 24  1  0
 22 23  2  0
 22 57  1  0
 24 25  3  0
 26 27  1  0
 26 58  1  0
 27 32  2  0
 27 28  1  0
 28 29  2  0
 28 59  1  0
 29 30  1  0
 29 35  1  0
 30 31  2  0
 30 34  1  0
 31 32  1  0
 31 60  1  0
 32 33  1  0
 35 36  1  0
 36 61  1  0
 36 62  1  0
 36 63  1  0
M  CHG  1   2   1
M  END
> <Name>
CHEMBL391738

$$$$
CHEMBL241040
  SciTegic01042613403D

 61 64  0  0  0  0            999 V2000
   -4.7479    2.8487    7.4920 C   0  0
   -4.9858    1.4466    7.8601 N   0  3  2  0  0  0
   -5.1736    1.3473    9.3135 C   0  0
   -5.4401   -0.1104    9.6952 C   0  0
   -4.3028   -0.9402    9.2730 N   0  0
   -4.0870   -0.8314    7.8233 C   0  0
   -3.8316    0.6323    7.4570 C   0  0
   -4.4957   -2.3404    9.6730 C   0  0
   -3.2480   -3.0899    9.4528 C   0  0
   -2.2530   -3.6876    9.2772 C   0  0
   -1.0392   -4.4167    9.0630 C   0  0
    0.0733   -3.7658    8.5545 C   0  0
    1.2607   -4.4806    8.3458 C   0  0
    1.3019   -5.8612    8.6599 C   0  0
    0.1639   -6.4996    9.1740 C   0  0
   -0.9835   -5.7889    9.3762 C   0  0
   -2.0820   -6.4108    9.8789 O   0  0
   -1.9602   -7.8033   10.1758 C   0  0
    2.5036   -6.5775    8.4470 C   0  0
    3.6021   -5.8746    7.9307 C   0  0
    3.4710   -4.5051    7.6479 C   0  0
    2.3481   -3.8667    7.8546 N   0  0
    4.8446   -6.5463    7.6948 C   0  0
    5.8303   -7.0792    7.5077 N   0  0
    2.5919   -7.9240    8.7385 N   0  0
    2.8457   -8.3404   10.0490 C   0  0
    2.8921   -7.4091   11.0776 C   0  0
    3.1438   -7.8251   12.3750 C   0  0
    3.3493   -9.1720   12.6444 C   0  0
    3.3029  -10.0987   11.6192 C   0  0
    3.0463   -9.6881   10.3243 C   0  0
    2.9816  -10.8550    9.0407 Cl  0  0
    3.6652   -9.6925   14.2701 Cl  0  0
    3.1902   -6.9151   13.3839 O   0  0
    2.8523   -5.5658   13.0565 C   0  0
   -4.6098    2.9228    6.4133 H   0  0
   -5.6042    3.4531    7.7910 H   0  0
   -3.8532    3.2105    7.9986 H   0  0
   -4.2745    1.6971    9.8207 H   0  0
   -6.0223    1.9623    9.6130 H   0  0
   -5.5648   -0.1866   10.7753 H   0  0
   -6.3468   -0.4564    9.1988 H   0  0
   -3.2245   -1.4335    7.5378 H   0  0
   -4.9714   -1.1892    7.2961 H   0  0
   -3.6854    0.7172    6.3802 H   0  0
   -2.9394    0.9858    7.9738 H   0  0
   -4.7637   -2.3832   10.7286 H   0  0
   -5.2946   -2.7818    9.0771 H   0  0
    0.0256   -2.7127    8.3198 H   0  0
    0.1966   -7.5524    9.4127 H   0  0
   -1.1755   -7.9492   10.9182 H   0  0
   -2.9063   -8.1750   10.5692 H   0  0
   -1.7057   -8.3478    9.2665 H   0  0
    4.3182   -3.9657    7.2507 H   0  0
    2.4779   -8.5811    8.0342 H   0  0
    2.7325   -6.3620   10.8667 H   0  0
    3.4633  -11.1455   11.8311 H   0  0
    3.5713   -5.1758   12.3360 H   0  0
    1.8522   -5.5363   12.6242 H   0  0
    2.8759   -4.9560   13.9597 H   0  0
   -5.8138    1.1117    7.3907 H   0  0
  1  2  1  0
  1 36  1  0
  1 37  1  0
  1 38  1  0
  2  7  1  0
  2  3  1  0
  2 61  1  0
  3  4  1  0
  3 39  1  0
  3 40  1  0
  4  5  1  0
  4 41  1  0
  4 42  1  0
  5  6  1  0
  5  8  1  0
  6  7  1  0
  6 43  1  0
  6 44  1  0
  7 45  1  0
  7 46  1  0
  8  9  1  0
  8 47  1  0
  8 48  1  0
  9 10  3  0
 10 11  1  0
 11 16  2  0
 11 12  1  0
 12 13  2  0
 12 49  1  0
 13 22  1  0
 13 14  1  0
 14 15  2  0
 14 19  1  0
 15 16  1  0
 15 50  1  0
 16 17  1  0
 17 18  1  0
 18 51  1  0
 18 52  1  0
 18 53  1  0
 19 20  2  0
 19 25  1  0
 20 21  1  0
 20 23  1  0
 21 22  2  0
 21 54  1  0
 23 24  3  0
 25 26  1  0
 25 55  1  0
 26 31  2  0
 26 27  1  0
 27 28  2  0
 27 56  1  0
 28 29  1  0
 28 34  1  0
 29 30  2  0
 29 33  1  0
 30 31  1  0
 30 57  1  0
 31 32  1  0
 34 35  1  0
 35 58  1  0
 35 59  1  0
 35 60  1  0
M  CHG  1   2   1
M  END
> <Name>
CHEMBL241040

$$$$
CHEMBL293132
  SciTegic01042613403D

 76 79  0  0  0  0            999 V2000
    0.1284    1.4492    0.2097 C   0  0
    0.0190   -0.0668    0.0349 C   0  0
    0.5762   -0.4508   -1.2689 N   0  3
    2.0192   -0.1759   -1.2850 C   0  0
    2.5730   -0.4396   -2.6866 C   0  0
    0.3482   -1.8842   -1.4959 C   0  0
   -1.1545   -2.1508   -1.6035 C   0  0
   -1.3919   -3.6437   -1.8399 C   0  0
   -2.8947   -3.9103   -1.9475 C   0  0
   -3.1220   -5.3397   -2.1738 N   0  0
   -4.4104   -5.8223   -2.3045 C   0  0
   -5.4247   -4.9636   -2.2256 N   0  0
   -6.6744   -5.3647   -2.3425 C   0  0
   -6.9227   -6.7316   -2.5548 C   0  0
   -8.2262   -7.2370   -2.6900 C   0  0
   -8.3767   -8.5988   -2.8974 C   0  0
   -7.2317   -9.4211   -2.9647 C   0  0
   -6.0190   -8.9233   -2.8344 N   0  0
   -5.8180   -7.6196   -2.6337 C   0  0
   -4.5844   -7.1144   -2.5077 N   0  0
   -7.3868  -10.7841   -3.1724 N   0  0
   -6.3034  -11.5831   -3.2392 C   0  0
   -5.1904  -11.1095   -3.1175 O   0  0
   -6.4540  -12.9071   -3.4409 N   0  0
   -5.2765  -13.7756   -3.5135 C   0  0
   -4.8584  -14.1872   -2.1005 C   0  0
   -3.6285  -15.0942   -2.1763 C   0  0
   -3.9658  -16.3435   -2.9926 C   0  0
   -4.3839  -15.9320   -4.4057 C   0  0
   -5.6137  -15.0249   -4.3298 C   0  0
   -9.7293   -9.1872   -3.0467 C   0  0
  -10.4260   -9.6352   -1.9243 C   0  0
  -11.6860  -10.1820   -2.0701 C   0  0
  -12.2571  -10.2858   -3.3255 C   0  0
  -11.5713   -9.8438   -4.4424 C   0  0
  -10.3130   -9.2898   -4.3094 C   0  0
   -9.4567   -8.7290   -5.7116 Cl  0  0
   -9.7106   -9.5064   -0.3478 Cl  0  0
    1.1790    1.7329    0.2727 H   0  0
   -0.3320    1.9475   -0.6434 H   0  0
   -0.3838    1.7474    1.1245 H   0  0
    0.5754   -0.5652    0.8288 H   0  0
   -1.0286   -0.3635    0.0840 H   0  0
    2.1936    0.8657   -1.0153 H   0  0
    2.5208   -0.8258   -0.5679 H   0  0
    1.9971    0.1280   -3.4175 H   0  0
    3.6177   -0.1312   -2.7284 H   0  0
    2.4989   -1.5034   -2.9124 H   0  0
    0.8383   -2.1880   -2.4209 H   0  0
    0.7596   -2.4539   -0.6626 H   0  0
   -1.6446   -1.8469   -0.6785 H   0  0
   -1.5658   -1.5811   -2.4368 H   0  0
   -0.9019   -3.9475   -2.7649 H   0  0
   -0.9806   -4.2134   -1.0066 H   0  0
   -3.3848   -3.6064   -1.0225 H   0  0
   -3.3060   -3.3406   -2.7808 H   0  0
   -2.3683   -5.9475   -2.2320 H   0  0
   -7.4894   -4.6591   -2.2764 H   0  0
   -9.0849   -6.5843   -2.6339 H   0  0
   -8.2748  -11.1620   -3.2695 H   0  0
   -7.3421  -13.2850   -3.5380 H   0  0
   -4.4579  -13.2385   -3.9927 H   0  0
   -4.6181  -13.2971   -1.5189 H   0  0
   -5.6769  -14.7242   -1.6213 H   0  0
   -2.8100  -14.5571   -2.6555 H   0  0
   -3.3307  -15.3874   -1.1697 H   0  0
   -3.0897  -16.9897   -3.0467 H   0  0
   -4.7844  -16.8806   -2.5135 H   0  0
   -3.5653  -15.3949   -4.8849 H   0  0
   -4.6242  -16.8220   -4.9872 H   0  0
   -6.4323  -15.5620   -3.8507 H   0  0
   -5.9116  -14.7317   -5.3365 H   0  0
  -12.2263  -10.5296   -1.2019 H   0  0
  -13.2426  -10.7141   -3.4343 H   0  0
  -12.0225   -9.9278   -5.4201 H   0  0
    0.1244    0.0811   -1.9976 H   0  0
  1  2  1  0
  1 39  1  0
  1 40  1  0
  1 41  1  0
  2  3  1  0
  2 42  1  0
  2 43  1  0
  3  4  1  0
  3  6  1  0
  3 76  1  0
  4  5  1  0
  4 44  1  0
  4 45  1  0
  5 46  1  0
  5 47  1  0
  5 48  1  0
  6  7  1  0
  6 49  1  0
  6 50  1  0
  7  8  1  0
  7 51  1  0
  7 52  1  0
  8  9  1  0
  8 53  1  0
  8 54  1  0
  9 10  1  0
  9 55  1  0
  9 56  1  0
 10 11  1  0
 10 57  1  0
 11 20  2  0
 11 12  1  0
 12 13  2  0
 13 14  1  0
 13 58  1  0
 14 19  2  0
 14 15  1  0
 15 16  2  0
 15 59  1  0
 16 17  1  0
 16 31  1  0
 17 18  2  0
 17 21  1  0
 18 19  1  0
 19 20  1  0
 21 22  1  0
 21 60  1  0
 22 23  2  0
 22 24  1  0
 24 25  1  0
 24 61  1  0
 25 30  1  0
 25 26  1  0
 25 62  1  0
 26 27  1  0
 26 63  1  0
 26 64  1  0
 27 28  1  0
 27 65  1  0
 27 66  1  0
 28 29  1  0
 28 67  1  0
 28 68  1  0
 29 30  1  0
 29 69  1  0
 29 70  1  0
 30 71  1  0
 30 72  1  0
 31 36  2  0
 31 32  1  0
 32 33  2  0
 32 38  1  0
 33 34  1  0
 33 73  1  0
 34 35  2  0
 34 74  1  0
 35 36  1  0
 35 75  1  0
 36 37  1  0
M  CHG  1   3   1
M  END
> <Name>
CHEMBL293132

$$$$
CHEMBL307087
  SciTegic01042613403D

 51 54  0  0  0  0            999 V2000
   -0.0511    1.6774    0.7342 C   0  0
    0.0142    0.2589    0.8949 O   0  0
   -1.1544   -0.4271    0.7990 C   0  0
   -2.3161    0.2451    0.5534 C   0  0
   -3.5255   -0.4582    0.4529 C   0  0
   -3.5438   -1.8665    0.6059 C   0  0
   -2.3438   -2.5440    0.8582 C   0  0
   -1.1571   -1.8295    0.9482 C   0  0
    0.1060   -2.5396    1.2072 C   0  0
    0.1085   -3.8759    1.3501 C   0  0
    1.3726   -4.5866    1.6094 C   0  0
    2.5834   -3.8881    1.7166 C   0  0
    3.7423   -4.5941    1.9603 C   0  0
    3.7215   -5.9070    2.0920 N   0  0
    2.6046   -6.6038    1.9985 C   0  0
    1.3982   -5.9799    1.7617 C   0  0
   -4.6997   -2.5417    0.5093 N   0  0
   -5.8369   -1.9398    0.2742 C   0  0
   -5.9123   -0.5469    0.1085 C   0  0
   -4.7411    0.2197    0.1982 C   0  0
   -4.7732    1.5911    0.0422 N   0  0
   -5.9634    2.2919    0.2602 C   0  0
   -6.6088    2.9126   -0.8008 C   0  0
   -7.7883    3.6058   -0.5815 C   0  0
   -8.3228    3.6785    0.6982 C   0  0
   -7.6790    3.0603    1.7544 C   0  0
   -6.5050    2.3630    1.5384 C   0  0
   -5.7031    1.5819    2.8653 Cl  0  0
   -9.8006    4.5472    0.9724 Cl  0  0
   -8.4219    4.2148   -1.6186 O   0  0
   -7.8803    4.0035   -2.9240 C   0  0
   -7.1718    0.0839   -0.1489 C   0  0
   -8.1710    0.5843   -0.3530 N   0  0
    0.9484    2.1007    0.8336 H   0  0
   -0.4490    1.9132   -0.2528 H   0  0
   -0.7025    2.1001    1.4990 H   0  0
   -2.3045    1.3187    0.4367 H   0  0
   -2.3413   -3.6174    0.9773 H   0  0
    1.0307   -1.9867    1.2824 H   0  0
   -0.8162   -4.4288    1.2749 H   0  0
    2.6081   -2.8137    1.6095 H   0  0
    4.6802   -4.0653    2.0442 H   0  0
    2.6355   -7.6772    2.1133 H   0  0
    0.4874   -6.5561    1.6910 H   0  0
   -6.7400   -2.5281    0.2054 H   0  0
   -3.9701    2.0686   -0.2186 H   0  0
   -6.1919    2.8556   -1.7955 H   0  0
   -8.0964    3.1186    2.7488 H   0  0
   -8.5264    4.4729   -3.6658 H   0  0
   -6.8843    4.4429   -2.9797 H   0  0
   -7.8170    2.9335   -3.1223 H   0  0
  1  2  1  0
  1 34  1  0
  1 35  1  0
  1 36  1  0
  2  3  1  0
  3  8  2  0
  3  4  1  0
  4  5  2  0
  4 37  1  0
  5 20  1  0
  5  6  1  0
  6  7  2  0
  6 17  1  0
  7  8  1  0
  7 38  1  0
  8  9  1  0
  9 10  2  0
  9 39  1  0
 10 11  1  0
 10 40  1  0
 11 16  2  0
 11 12  1  0
 12 13  2  0
 12 41  1  0
 13 14  1  0
 13 42  1  0
 14 15  2  0
 15 16  1  0
 15 43  1  0
 16 44  1  0
 17 18  2  0
 18 19  1  0
 18 45  1  0
 19 20  2  0
 19 32  1  0
 20 21  1  0
 21 22  1  0
 21 46  1  0
 22 27  2  0
 22 23  1  0
 23 24  2  0
 23 47  1  0
 24 25  1  0
 24 30  1  0
 25 26  2  0
 25 29  1  0
 26 27  1  0
 26 48  1  0
 27 28  1  0
 30 31  1  0
 31 49  1  0
 31 50  1  0
 31 51  1  0
 32 33  3  0
M  END
> <Name>
CHEMBL307087

$$$$
CHEMBL67812
  SciTegic01042613403D

 51 54  0  0  0  0            999 V2000
   -0.6317    1.6753   -0.3765 C   0  0
   -0.7811    0.2551   -0.4285 O   0  0
   -0.1030   -0.4010   -1.4060 C   0  0
    0.6794    0.3009   -2.2755 C   0  0
    1.3817   -0.3715   -3.2867 C   0  0
    1.2804   -1.7795   -3.4073 C   0  0
    0.4730   -2.4877   -2.5078 C   0  0
   -0.2086   -1.8036   -1.5107 C   0  0
   -1.0522   -2.5462   -0.5601 C   0  0
   -1.1560   -3.8824   -0.6557 C   0  0
   -2.0004   -4.6258    0.2959 C   0  0
   -2.1129   -6.0205    0.2108 C   0  0
   -2.9185   -6.6700    1.1284 C   0  0
   -3.5814   -5.9301    2.0917 C   0  0
   -3.4577   -4.6180    2.1485 N   0  0
   -2.6984   -3.9534    1.3024 C   0  0
    1.9520   -2.4251   -4.3733 N   0  0
    2.7144   -1.7940   -5.2286 C   0  0
    2.8734   -0.3991   -5.1834 C   0  0
    2.1988    0.3376   -4.1983 C   0  0
    2.3285    1.7100   -4.1207 N   0  0
    2.7235    2.4396   -5.2462 C   0  0
    3.9554    3.0798   -5.2623 C   0  0
    4.3437    3.8020   -6.3791 C   0  0
    3.5009    3.8845   -7.4798 C   0  0
    2.2742    3.2466   -7.4628 C   0  0
    1.8857    2.5203   -6.3525 C   0  0
    0.3481    1.7146   -6.3371 Cl  0  0
    3.9877    4.7901   -8.8786 Cl  0  0
    5.5492    4.4301   -6.3972 O   0  0
    6.4128    4.2090   -5.2804 C   0  0
    3.7149    0.2642   -6.1334 C   0  0
    4.3825    0.7905   -6.8870 N   0  0
    0.4181    1.9249   -0.2229 H   0  0
   -0.9753    2.1113   -1.3146 H   0  0
   -1.2241    2.0730    0.4475 H   0  0
    0.7578    1.3743   -2.1856 H   0  0
    0.3854   -3.5613   -2.5866 H   0  0
   -1.5876   -2.0170    0.2143 H   0  0
   -0.6205   -4.4116   -1.4301 H   0  0
   -1.5845   -6.5734   -0.5517 H   0  0
   -3.0295   -7.7437    1.0932 H   0  0
   -4.2109   -6.4355    2.8092 H   0  0
   -2.6183   -2.8795    1.3841 H   0  0
    3.2347   -2.3592   -5.9877 H   0  0
    2.1456    2.1679   -3.2854 H   0  0
    4.6097    3.0152   -4.4056 H   0  0
    1.6203    3.3124   -8.3198 H   0  0
    5.9570    4.6231   -4.3810 H   0  0
    6.5693    3.1384   -5.1485 H   0  0
    7.3709    4.6969   -5.4598 H   0  0
  1  2  1  0
  1 34  1  0
  1 35  1  0
  1 36  1  0
  2  3  1  0
  3  8  2  0
  3  4  1  0
  4  5  2  0
  4 37  1  0
  5 20  1  0
  5  6  1  0
  6  7  2  0
  6 17  1  0
  7  8  1  0
  7 38  1  0
  8  9  1  0
  9 10  2  0
  9 39  1  0
 10 11  1  0
 10 40  1  0
 11 16  2  0
 11 12  1  0
 12 13  2  0
 12 41  1  0
 13 14  1  0
 13 42  1  0
 14 15  2  0
 14 43  1  0
 15 16  1  0
 16 44  1  0
 17 18  2  0
 18 19  1  0
 18 45  1  0
 19 20  2  0
 19 32  1  0
 20 21  1  0
 21 22  1  0
 21 46  1  0
 22 27  2  0
 22 23  1  0
 23 24  2  0
 23 47  1  0
 24 25  1  0
 24 30  1  0
 25 26  2  0
 25 29  1  0
 26 27  1  0
 26 48  1  0
 27 28  1  0
 30 31  1  0
 31 49  1  0
 31 50  1  0
 31 51  1  0
 32 33  3  0
M  END
> <Name>
CHEMBL67812

$$$$
CHEMBL110403
  SciTegic01042613403D

 67 71  0  0  0  0            999 V2000
   -4.0367   -4.8667    0.6052 C   0  0
   -5.1586   -4.3645   -0.1919 N   0  0
   -5.2756   -3.0146   -0.4312 C   0  0
   -4.3441   -2.1138    0.0713 C   0  0
   -4.5058   -0.7620   -0.1982 C   0  0
   -5.5288   -0.3202   -0.9225 N   0  0
   -6.4367   -1.1308   -1.4204 C   0  0
   -6.3496   -2.5106   -1.1972 C   0  0
   -7.3180   -3.3974   -1.7244 C   0  0
   -7.1955   -4.7383   -1.4808 C   0  0
   -6.0648   -5.2288   -0.6895 C   0  0
   -5.9469   -6.4221   -0.4744 O   0  0
   -8.1954   -5.6887   -2.0211 C   0  0
   -9.3298   -6.0116   -1.2753 C   0  0
  -10.2581   -6.8983   -1.7847 C   0  0
  -10.0653   -7.4658   -3.0314 C   0  0
   -8.9430   -7.1500   -3.7759 C   0  0
   -8.0099   -6.2604   -3.2805 C   0  0
   -6.6057   -5.8597   -4.2194 Cl  0  0
   -9.5733   -5.3008    0.2897 Cl  0  0
   -3.5817    0.1461    0.2987 N   0  0
   -3.8022    1.5206    0.1517 C   0  0
   -2.7311    2.3764   -0.0699 C   0  0
   -2.9496    3.7322   -0.2148 C   0  0
   -4.2384    4.2395   -0.1386 C   0  0
   -5.3089    3.3854    0.0827 C   0  0
   -5.0929    2.0286    0.2216 C   0  0
   -4.4526    5.5748   -0.2806 O   0  0
   -5.8048    6.0282   -0.1909 C   0  0
   -5.8469    7.5466   -0.3740 C   0  0
   -5.3799    7.8902   -1.7237 N   0  0
   -4.9755    9.3013   -1.7978 C   0  0
   -4.4410    9.6026   -3.1996 C   0  0
   -5.4859    9.3221   -4.1931 N   0  3  2  0  0  0
   -5.8617    7.9038   -4.1237 C   0  0
   -6.4081    7.5883   -2.7296 C   0  0
   -4.9783    9.6286   -5.5371 C   0  0
   -4.1048   -5.9516    0.6852 H   0  0
   -3.0979   -4.5962    0.1219 H   0  0
   -4.0728   -4.4258    1.6014 H   0  0
   -3.5087   -2.4598    0.6619 H   0  0
   -7.2529   -0.7307   -2.0036 H   0  0
   -8.1429   -3.0209   -2.3110 H   0  0
  -11.1362   -7.1493   -1.2084 H   0  0
  -10.7940   -8.1589   -3.4251 H   0  0
   -8.7984   -7.5966   -4.7485 H   0  0
   -2.7828   -0.1716    0.7480 H   0  0
   -1.7275    1.9817   -0.1285 H   0  0
   -2.1168    4.3978   -0.3871 H   0  0
   -6.3120    3.7813    0.1422 H   0  0
   -5.9269    1.3632    0.3895 H   0  0
   -6.4002    5.5517   -0.9697 H   0  0
   -6.2109    5.7687    0.7868 H   0  0
   -6.8695    7.9002   -0.2423 H   0  0
   -5.2008    8.0197    0.3655 H   0  0
   -5.8364    9.9375   -1.5923 H   0  0
   -4.1954    9.4952   -1.0616 H   0  0
   -4.1537   10.6523   -3.2610 H   0  0
   -3.5719    8.9759   -3.3996 H   0  0
   -6.6278    7.6940   -4.8702 H   0  0
   -4.9854    7.2857   -4.3189 H   0  0
   -6.6732    6.5325   -2.6732 H   0  0
   -7.2925    8.1964   -2.5394 H   0  0
   -4.1042    9.0116   -5.7449 H   0  0
   -5.7536    9.4205   -6.2745 H   0  0
   -4.7006   10.6814   -5.5892 H   0  0
   -6.2947    9.8939   -4.0009 H   0  0
  1  2  1  0
  1 38  1  0
  1 39  1  0
  1 40  1  0
  2 11  1  0
  2  3  1  0
  3  8  2  0
  3  4  1  0
  4  5  2  0
  4 41  1  0
  5  6  1  0
  5 21  1  0
  6  7  2  0
  7  8  1  0
  7 42  1  0
  8  9  1  0
  9 10  2  0
  9 43  1  0
 10 11  1  0
 10 13  1  0
 11 12  2  0
 13 18  2  0
 13 14  1  0
 14 15  2  0
 14 20  1  0
 15 16  1  0
 15 44  1  0
 16 17  2  0
 16 45  1  0
 17 18  1  0
 17 46  1  0
 18 19  1  0
 21 22  1  0
 21 47  1  0
 22 27  2  0
 22 23  1  0
 23 24  2  0
 23 48  1  0
 24 25  1  0
 24 49  1  0
 25 26  2  0
 25 28  1  0
 26 27  1  0
 26 50  1  0
 27 51  1  0
 28 29  1  0
 29 30  1  0
 29 52  1  0
 29 53  1  0
 30 31  1  0
 30 54  1  0
 30 55  1  0
 31 36  1  0
 31 32  1  0
 32 33  1  0
 32 56  1  0
 32 57  1  0
 33 34  1  0
 33 58  1  0
 33 59  1  0
 34 35  1  0
 34 37  1  0
 34 67  1  0
 35 36  1  0
 35 60  1  0
 35 61  1  0
 36 62  1  0
 36 63  1  0
 37 64  1  0
 37 65  1  0
 37 66  1  0
M  CHG  1  34   1
M  END
> <Name>
CHEMBL110403

$$$$
CHEMBL585198
  SciTegic01042613403D

 61 65  0  0  0  0            999 V2000
    3.3534   -2.8791   -0.5533 C   0  0
    1.9260   -2.8112   -0.5630 O   0  0
    1.3570   -1.9054   -1.4019 C   0  0
    2.1479   -1.1818   -2.2804 C   0  0
    1.5643   -0.2579   -3.1362 C   0  0
    0.1881   -0.0609   -3.1099 C   0  0
   -0.5972   -0.7840   -2.2322 C   0  0
   -0.0173   -1.7090   -1.3830 C   0  0
   -1.0083   -2.6208   -0.2874 Cl  0  0
   -0.5437    1.0941   -4.1795 Cl  0  0
    2.3594    0.4741   -4.0235 N   0  0
    2.4990    1.8372   -3.8610 C   0  0
    2.8656    2.6688   -4.9459 C   0  0
    3.0979    2.1320   -6.2211 C   0  0
    3.4489    2.9504   -7.2493 C   0  0
    3.5827    4.3325   -7.0495 C   0  0
    3.3600    4.8886   -5.8023 C   0  0
    2.9963    4.0617   -4.7294 C   0  0
    2.7744    4.5802   -3.5126 N   0  0
    2.4340    3.8349   -2.4926 C   0  0
    2.2766    2.4450   -2.6165 C   0  0
    1.8978    1.6558   -1.4832 C   0  0
    1.5973    1.0298   -0.5842 N   0  0
    3.9669    5.2054   -8.1854 C   0  0
    4.0843    4.6640   -9.4641 C   0  0
    4.4431    5.4912  -10.5142 C   0  0
    4.6732    6.8341  -10.2508 C   0  0
    4.5385    7.3043   -8.9574 C   0  0
    4.1908    6.4963   -7.9767 N   0  0
    5.0665    7.7711  -11.3637 C   0  0
    3.8584    8.3514  -11.9652 N   0  0
    3.0386    7.3163  -12.5992 C   0  0
    1.6174    7.8430  -12.8244 C   0  0
    1.6999    9.2648  -13.9557 S   0  0
    0.4565    9.9514  -13.9115 O   0  0
    2.2019    8.8187  -15.2079 O   0  0
    2.9628   10.3007  -13.1556 C   0  0
    4.2004    9.4385  -12.8852 C   0  0
    3.7084   -3.2028   -1.5317 H   0  0
    3.7625   -1.8947   -0.3258 H   0  0
    3.6781   -3.5916    0.2050 H   0  0
    3.2166   -1.3363   -2.2988 H   0  0
   -1.6659   -0.6295   -2.2123 H   0  0
    2.8129    0.0237   -4.7531 H   0  0
    2.9985    1.0694   -6.3863 H   0  0
    3.6266    2.5321   -8.2290 H   0  0
    3.4657    5.9534   -5.6558 H   0  0
    2.2666    4.3005   -1.5325 H   0  0
    3.8981    3.6137   -9.6332 H   0  0
    4.5423    5.1001  -11.5160 H   0  0
    4.7168    8.3489   -8.7491 H   0  0
    5.6920    8.5687  -10.9631 H   0  0
    5.6218    7.2205  -12.1230 H   0  0
    3.4793    7.0420  -13.5577 H   0  0
    3.0015    6.4383  -11.9544 H   0  0
    1.0022    7.0591  -13.2660 H   0  0
    1.1881    8.1567  -11.8729 H   0  0
    3.2293   11.1273  -13.8142 H   0  0
    2.5747   10.6895  -12.2142 H   0  0
    4.9819   10.0557  -12.4419 H   0  0
    4.5613    9.0184  -13.8240 H   0  0
  1  2  1  0
  1 39  1  0
  1 40  1  0
  1 41  1  0
  2  3  1  0
  3  8  2  0
  3  4  1  0
  4  5  2  0
  4 42  1  0
  5  6  1  0
  5 11  1  0
  6  7  2  0
  6 10  1  0
  7  8  1  0
  7 43  1  0
  8  9  1  0
 11 12  1  0
 11 44  1  0
 12 21  2  0
 12 13  1  0
 13 18  2  0
 13 14  1  0
 14 15  2  0
 14 45  1  0
 15 16  1  0
 15 46  1  0
 16 17  2  0
 16 24  1  0
 17 18  1  0
 17 47  1  0
 18 19  1  0
 19 20  2  0
 20 21  1  0
 20 48  1  0
 21 22  1  0
 22 23  3  0
 24 29  2  0
 24 25  1  0
 25 26  2  0
 25 49  1  0
 26 27  1  0
 26 50  1  0
 27 28  2  0
 27 30  1  0
 28 29  1  0
 28 51  1  0
 30 31  1  0
 30 52  1  0
 30 53  1  0
 31 38  1  0
 31 32  1  0
 32 33  1  0
 32 54  1  0
 32 55  1  0
 33 34  1  0
 33 56  1  0
 33 57  1  0
 34 35  2  0
 34 36  2  0
 34 37  1  0
 37 38  1  0
 37 58  1  0
 37 59  1  0
 38 60  1  0
 38 61  1  0
M  END
> <Name>
CHEMBL585198

$$$$
CHEMBL418693
  SciTegic01042613403D

 57 61  0  0  0  0            999 V2000
    3.3545   -2.8786   -0.5531 C   0  0
    1.9271   -2.8109   -0.5626 O   0  0
    1.3578   -1.9053   -1.4015 C   0  0
    2.1484   -1.1816   -2.2802 C   0  0
    1.5646   -0.2580   -3.1361 C   0  0
    0.1884   -0.0612   -3.1096 C   0  0
   -0.5968   -0.7843   -2.2317 C   0  0
   -0.0166   -1.7092   -1.3824 C   0  0
   -1.0072   -2.6206   -0.2862 Cl  0  0
   -0.5438    1.0936   -4.1792 Cl  0  0
    2.3594    0.4741   -4.0235 N   0  0
    2.4991    1.8374   -3.8610 C   0  0
    2.8653    2.6682   -4.9451 C   0  0
    3.0970    2.1301   -6.2209 C   0  0
    3.4473    2.9465   -7.2494 C   0  0
    3.5812    4.3312   -7.0506 C   0  0
    3.3581    4.8885   -5.8005 C   0  0
    2.9962    4.0618   -4.7286 C   0  0
    2.7744    4.5806   -3.5114 N   0  0
    2.4341    3.8351   -2.4912 C   0  0
    2.2765    2.4454   -2.6157 C   0  0
    1.8976    1.6560   -1.4826 C   0  0
    1.5970    1.0297   -0.5838 N   0  0
    3.9633    5.2000   -8.1821 C   0  0
    4.2216    4.8588   -9.4837 C   0  0
    4.5639    5.8527  -10.3729 C   0  0
    4.6350    7.1368   -9.9352 C   0  0
    4.2011    6.9692   -8.2117 S   0  0
    4.8564    5.5203  -11.8134 C   0  0
    3.6144    5.5926  -12.5946 N   0  0
    2.6721    4.5414  -12.1843 C   0  0
    1.3723    4.6901  -12.9795 C   0  0
    1.6664    4.6379  -14.3781 O   0  0
    2.5808    5.6481  -14.8123 C   0  0
    3.8929    5.5091  -14.0357 C   0  0
    3.7093   -3.2025   -1.5315 H   0  0
    3.7634   -1.8941   -0.3259 H   0  0
    3.6794   -3.5908    0.2053 H   0  0
    3.2172   -1.3359   -2.2987 H   0  0
   -1.6655   -0.6303   -2.2119 H   0  0
    2.8127    0.0237   -4.7533 H   0  0
    2.9973    1.0673   -6.3849 H   0  0
    3.6247    2.5271   -8.2287 H   0  0
    3.4629    5.9533   -5.6539 H   0  0
    2.2665    4.3005   -1.5312 H   0  0
    4.1583    3.8300   -9.8060 H   0  0
    4.8852    8.0298  -10.4887 H   0  0
    5.5781    6.2336  -12.2115 H   0  0
    5.2678    4.5130  -11.8775 H   0  0
    3.1097    3.5629  -12.3819 H   0  0
    2.4603    4.6378  -11.1194 H   0  0
    0.6921    3.8789  -12.7201 H   0  0
    0.9070    5.6465  -12.7409 H   0  0
    2.7746    5.5298  -15.8784 H   0  0
    2.1507    6.6324  -14.6270 H   0  0
    4.5722    6.3119  -14.3222 H   0  0
    4.3500    4.5461  -14.2629 H   0  0
  1  2  1  0
  1 36  1  0
  1 37  1  0
  1 38  1  0
  2  3  1  0
  3  8  2  0
  3  4  1  0
  4  5  2  0
  4 39  1  0
  5  6  1  0
  5 11  1  0
  6  7  2  0
  6 10  1  0
  7  8  1  0
  7 40  1  0
  8  9  1  0
 11 12  1  0
 11 41  1  0
 12 21  2  0
 12 13  1  0
 13 18  2  0
 13 14  1  0
 14 15  2  0
 14 42  1  0
 15 16  1  0
 15 43  1  0
 16 17  2  0
 16 24  1  0
 17 18  1  0
 17 44  1  0
 18 19  1  0
 19 20  2  0
 20 21  1  0
 20 45  1  0
 21 22  1  0
 22 23  3  0
 24 28  1  0
 24 25  2  0
 25 26  1  0
 25 46  1  0
 26 27  2  0
 26 29  1  0
 27 28  1  0
 27 47  1  0
 29 30  1  0
 29 48  1  0
 29 49  1  0
 30 35  1  0
 30 31  1  0
 31 32  1  0
 31 50  1  0
 31 51  1  0
 32 33  1  0
 32 52  1  0
 32 53  1  0
 33 34  1  0
 34 35  1  0
 34 54  1  0
 34 55  1  0
 35 56  1  0
 35 57  1  0
M  END
> <Name>
CHEMBL418693

$$$$
CHEMBL41465
  SciTegic01042613403D

 64 67  0  0  0  0            999 V2000
   -4.7522    1.0369    7.4757 C   0  0
   -4.6343   -0.4246    7.5650 N   0  3  2  0  0  0
   -4.7187   -0.8357    8.9715 C   0  0
   -4.6779   -2.3626    9.0639 C   0  0
   -3.3653   -2.8701    8.4600 C   0  0
   -3.2533   -2.3729    7.0159 C   0  0
   -3.3469   -0.8456    6.9994 C   0  0
   -3.3523   -4.4000    8.4767 C   0  0
   -1.9923   -4.9038    7.9894 C   0  0
   -1.9801   -6.3326    8.0050 O   0  0
   -0.8372   -6.9442    7.5981 C   0  0
    0.2387   -6.1824    7.2023 C   0  0
    1.4202   -6.8117    6.7816 C   0  0
    1.4831   -8.2262    6.7724 C   0  0
    0.3724   -8.9789    7.1812 C   0  0
   -0.7645   -8.3440    7.5914 C   0  0
   -1.8380   -9.0763    7.9919 O   0  0
   -1.7008  -10.4984    7.9620 C   0  0
    2.6752   -8.8575    6.3479 C   0  0
    3.7448   -8.0392    5.9539 C   0  0
    3.5939   -6.6438    5.9950 C   0  0
    2.4790   -6.0860    6.3927 N   0  0
    4.9774   -8.6211    5.5148 C   0  0
    5.9552   -9.0827    5.1665 N   0  0
    2.7833  -10.2335    6.3226 N   0  0
    3.1031  -10.9314    7.4913 C   0  0
    3.1953  -10.2561    8.7009 C   0  0
    3.5125  -10.9506    9.8571 C   0  0
    3.7375  -12.3200    9.8044 C   0  0
    3.6455  -12.9916    8.5993 C   0  0
    3.3236  -12.3031    7.4445 C   0  0
    3.2012  -13.1506    5.9344 Cl  0  0
    4.1355  -13.1895   11.2533 Cl  0  0
    3.6038  -10.2916   11.0426 O   0  0
    3.2425   -8.9090   11.0459 C   0  0
   -4.6962    1.3428    6.4310 H   0  0
   -5.7079    1.3507    7.8954 H   0  0
   -3.9398    1.5018    8.0343 H   0  0
   -3.8776   -0.4162    9.5233 H   0  0
   -5.6519   -0.4710    9.4008 H   0  0
   -4.7389   -2.6658   10.1091 H   0  0
   -5.5189   -2.7832    8.5125 H   0  0
   -2.5255   -2.4909    9.0422 H   0  0
   -2.2960   -2.6834    6.5972 H   0  0
   -4.0647   -2.7937    6.4220 H   0  0
   -3.2673   -0.4882    5.9727 H   0  0
   -2.5350   -0.4259    7.5933 H   0  0
   -3.5280   -4.7537    9.4926 H   0  0
   -4.1361   -4.7773    7.8199 H   0  0
   -1.8165   -4.5500    6.9734 H   0  0
   -1.2084   -4.5265    8.6461 H   0  0
    0.1737   -5.1045    7.2151 H   0  0
    0.4177  -10.0579    7.1748 H   0  0
   -0.8815  -10.7982    8.6154 H   0  0
   -2.6267  -10.9600    8.3051 H   0  0
   -1.4896  -10.8217    6.9427 H   0  0
    4.4183   -6.0156    5.6916 H   0  0
    2.6373  -10.7163    5.4940 H   0  0
    3.0204   -9.1911    8.7404 H   0  0
    3.8213  -14.0565    8.5608 H   0  0
    3.9186   -8.3552   10.3945 H   0  0
    2.2197   -8.7999   10.6850 H   0  0
    3.3135   -8.5173   12.0606 H   0  0
   -5.3852   -0.8539    7.0455 H   0  0
  1  2  1  0
  1 36  1  0
  1 37  1  0
  1 38  1  0
  2  7  1  0
  2  3  1  0
  2 64  1  0
  3  4  1  0
  3 39  1  0
  3 40  1  0
  4  5  1  0
  4 41  1  0
  4 42  1  0
  5  6  1  0
  5  8  1  0
  5 43  1  0
  6  7  1  0
  6 44  1  0
  6 45  1  0
  7 46  1  0
  7 47  1  0
  8  9  1  0
  8 48  1  0
  8 49  1  0
  9 10  1  0
  9 50  1  0
  9 51  1  0
 10 11  1  0
 11 16  2  0
 11 12  1  0
 12 13  2  0
 12 52  1  0
 13 22  1  0
 13 14  1  0
 14 15  2  0
 14 19  1  0
 15 16  1  0
 15 53  1  0
 16 17  1  0
 17 18  1  0
 18 54  1  0
 18 55  1  0
 18 56  1  0
 19 20  2  0
 19 25  1  0
 20 21  1  0
 20 23  1  0
 21 22  2  0
 21 57  1  0
 23 24  3  0
 25 26  1  0
 25 58  1  0
 26 31  2  0
 26 27  1  0
 27 28  2  0
 27 59  1  0
 28 29  1  0
 28 34  1  0
 29 30  2  0
 29 33  1  0
 30 31  1  0
 30 60  1  0
 31 32  1  0
 34 35  1  0
 35 61  1  0
 35 62  1  0
 35 63  1  0
M  CHG  1   2   1
M  END
> <Name>
CHEMBL41465

$$$$
CHEMBL424262
  SciTegic01042613403D

 65 68  0  0  0  0            999 V2000
   -0.6326    1.6747   -0.3777 C   0  0
   -0.7802    0.2543   -0.4288 O   0  0
   -0.1006   -0.4023   -1.4066 C   0  0
    0.6814    0.3018   -2.2765 C   0  0
    1.3835   -0.3725   -3.2861 C   0  0
    1.2795   -1.7800   -3.4001 C   0  0
    0.4691   -2.4813   -2.4944 C   0  0
   -0.2048   -1.7964   -1.5087 C   0  0
   -0.9838   -2.4782   -0.6290 O   0  0
   -1.0492   -3.8972   -0.7849 C   0  0
   -1.9672   -4.4863    0.2880 C   0  0
   -2.0372   -6.0055    0.1212 C   0  0
   -2.9186   -6.5712    1.1513 N   0  3
   -2.3288   -6.3444    2.4761 C   0  0
   -3.2811   -6.8594    3.5576 C   0  0
   -3.5158   -8.3586    3.3514 C   0  0  2  0  0  0
   -4.0613   -8.5905    1.9394 C   0  0
   -3.0802   -8.0113    0.9179 C   0  0
   -4.4619   -8.8307    4.3127 O   0  0
    1.9490   -2.4311   -4.3627 N   0  0
    2.7125   -1.8051   -5.2214 C   0  0
    2.8741   -0.4108   -5.1827 C   0  0
    2.2011    0.3315   -4.2004 C   0  0
    2.3334    1.7037   -4.1283 N   0  0
    2.7300    2.4282   -5.2566 C   0  0
    3.9635    3.0651   -5.2754 C   0  0
    4.3537    3.7817   -6.3952 C   0  0
    3.5111    3.8618   -7.4962 C   0  0
    2.2826    3.2275   -7.4764 C   0  0
    1.8923    2.5067   -6.3630 C   0  0
    0.3526    1.7051   -6.3442 Cl  0  0
    4.0005    4.7598   -8.8990 Cl  0  0
    5.5608    4.4067   -6.4160 O   0  0
    6.4239    4.1880   -5.2982 C   0  0
    3.7165    0.2467   -6.1359 C   0  0
    4.3848    0.7683   -6.8921 N   0  0
    0.4170    1.9256   -0.2240 H   0  0
   -0.9765    2.1097   -1.3161 H   0  0
   -1.2255    2.0722    0.4460 H   0  0
    0.7588    1.3754   -2.1877 H   0  0
    0.3784   -3.5551   -2.5671 H   0  0
   -1.4441   -4.1364   -1.7722 H   0  0
   -0.0502   -4.3206   -0.6807 H   0  0
   -1.5723   -4.2470    1.2754 H   0  0
   -2.9662   -4.0629    0.1839 H   0  0
   -2.4321   -6.2448   -0.8662 H   0  0
   -1.0382   -6.4289    0.2254 H   0  0
   -1.3792   -6.8748    2.5462 H   0  0
   -2.1594   -5.2773    2.6201 H   0  0
   -2.8405   -6.6917    4.5404 H   0  0
   -4.2310   -6.3294    3.4885 H   0  0
   -2.5744   -8.8948    3.4711 H   0  0
   -4.1786   -9.6601    1.7656 H   0  0
   -5.0275   -8.0964    1.8368 H   0  0
   -3.4655   -8.1748   -0.0885 H   0  0
   -2.1145   -8.5062    1.0213 H   0  0
   -4.6584   -9.7748    4.2403 H   0  0
    3.2314   -2.3748   -5.9782 H   0  0
    2.1513    2.1654   -3.2948 H   0  0
    4.6177    3.0024   -4.4184 H   0  0
    1.6287    3.2917   -8.3335 H   0  0
    5.9691    4.6069   -4.4006 H   0  0
    6.5777    3.1175   -5.1619 H   0  0
    7.3832    4.6727   -5.4796 H   0  0
   -3.8203   -6.1208    1.1053 H   0  0
  1  2  1  0
  1 37  1  0
  1 38  1  0
  1 39  1  0
  2  3  1  0
  3  8  2  0
  3  4  1  0
  4  5  2  0
  4 40  1  0
  5 23  1  0
  5  6  1  0
  6  7  2  0
  6 20  1  0
  7  8  1  0
  7 41  1  0
  8  9  1  0
  9 10  1  0
 10 11  1  0
 10 42  1  0
 10 43  1  0
 11 12  1  0
 11 44  1  0
 11 45  1  0
 12 13  1  0
 12 46  1  0
 12 47  1  0
 13 18  1  0
 13 14  1  0
 13 65  1  0
 14 15  1  0
 14 48  1  0
 14 49  1  0
 15 16  1  0
 15 50  1  0
 15 51  1  0
 16 17  1  0
 16 19  1  0
 16 52  1  0
 17 18  1  0
 17 53  1  0
 17 54  1  0
 18 55  1  0
 18 56  1  0
 19 57  1  0
 20 21  2  0
 21 22  1  0
 21 58  1  0
 22 23  2  0
 22 35  1  0
 23 24  1  0
 24 25  1  0
 24 59  1  0
 25 30  2  0
 25 26  1  0
 26 27  2  0
 26 60  1  0
 27 28  1  0
 27 33  1  0
 28 29  2  0
 28 32  1  0
 29 30  1  0
 29 61  1  0
 30 31  1  0
 33 34  1  0
 34 62  1  0
 34 63  1  0
 34 64  1  0
 35 36  3  0
M  CHG  1  13   1
M  END
> <Name>
CHEMBL424262

$$$$
CHEMBL322395
  SciTegic01042613403D

 60 64  0  0  0  0            999 V2000
    3.3554   -2.8779   -0.5533 C   0  0
    1.9280   -2.8104   -0.5623 O   0  0
    1.3583   -1.9052   -1.4014 C   0  0
    2.1486   -1.1816   -2.2804 C   0  0
    1.5644   -0.2580   -3.1360 C   0  0
    0.1882   -0.0612   -3.1090 C   0  0
   -0.5966   -0.7846   -2.2311 C   0  0
   -0.0161   -1.7094   -1.3820 C   0  0
   -1.0063   -2.6212   -0.2858 Cl  0  0
   -0.5443    1.0940   -4.1780 Cl  0  0
    2.3589    0.4741   -4.0238 N   0  0
    2.4989    1.8371   -3.8612 C   0  0
    2.8654    2.6686   -4.9458 C   0  0
    3.0972    2.1319   -6.2213 C   0  0
    3.4481    2.9504   -7.2493 C   0  0
    3.5824    4.3324   -7.0493 C   0  0
    3.3597    4.8884   -5.8020 C   0  0
    2.9966    4.0616   -4.7292 C   0  0
    2.7756    4.5800   -3.5121 N   0  0
    2.4357    3.8345   -2.4919 C   0  0
    2.2770    2.4449   -2.6163 C   0  0
    1.8982    1.6556   -1.4831 C   0  0
    1.5976    1.0295   -0.5842 N   0  0
    3.9670    5.2054   -8.1851 C   0  0
    4.1086    6.5788   -7.9949 C   0  0
    4.4671    7.3862   -9.0552 C   0  0
    4.6855    6.8348  -10.3049 C   0  0
    4.5460    5.4724  -10.4995 C   0  0
    4.1939    4.6546   -9.4451 C   0  0
    5.0763    7.7218  -11.4589 C   0  0
    6.5401    7.8288  -11.5203 N   0  0
    7.0660    8.5410  -10.3467 C   0  0
    8.5948    8.5774  -10.4213 C   0  0
    8.9926    9.1912  -11.6502 O   0  0
    8.4983    8.5230  -12.8140 C   0  0
    6.9686    8.4860  -12.7636 C   0  0
    3.7099   -3.2043   -1.5310 H   0  0
    3.7643   -1.8928   -0.3287 H   0  0
    3.6807   -3.5882    0.2068 H   0  0
    3.2173   -1.3359   -2.2994 H   0  0
   -1.6654   -0.6306   -2.2109 H   0  0
    2.8116    0.0237   -4.7539 H   0  0
    2.9974    1.0693   -6.3866 H   0  0
    3.6254    2.5322   -8.2291 H   0  0
    3.4647    5.9533   -5.6557 H   0  0
    2.2688    4.3000   -1.5317 H   0  0
    3.9377    7.0105   -7.0198 H   0  0
    4.5771    8.4506   -8.9091 H   0  0
    4.7170    5.0473  -11.4775 H   0  0
    4.0896    3.5904   -9.5971 H   0  0
    4.7040    7.2928  -12.3892 H   0  0
    4.6451    8.7128  -11.3176 H   0  0
    6.6778    9.5594  -10.3348 H   0  0
    6.7582    8.0229   -9.4384 H   0  0
    8.9864    9.1536   -9.5830 H   0  0
    8.9855    7.5607  -10.3790 H   0  0
    8.8202    9.0599  -13.7063 H   0  0
    8.8863    7.5047  -12.8413 H   0  0
    6.5896    7.9278  -13.6197 H   0  0
    6.5788    9.5036  -12.7904 H   0  0
  1  2  1  0
  1 37  1  0
  1 38  1  0
  1 39  1  0
  2  3  1  0
  3  8  2  0
  3  4  1  0
  4  5  2  0
  4 40  1  0
  5  6  1  0
  5 11  1  0
  6  7  2  0
  6 10  1  0
  7  8  1  0
  7 41  1  0
  8  9  1  0
 11 12  1  0
 11 42  1  0
 12 21  2  0
 12 13  1  0
 13 18  2  0
 13 14  1  0
 14 15  2  0
 14 43  1  0
 15 16  1  0
 15 44  1  0
 16 17  2  0
 16 24  1  0
 17 18  1  0
 17 45  1  0
 18 19  1  0
 19 20  2  0
 20 21  1  0
 20 46  1  0
 21 22  1  0
 22 23  3  0
 24 29  2  0
 24 25  1  0
 25 26  2  0
 25 47  1  0
 26 27  1  0
 26 48  1  0
 27 28  2  0
 27 30  1  0
 28 29  1  0
 28 49  1  0
 29 50  1  0
 30 31  1  0
 30 51  1  0
 30 52  1  0
 31 36  1  0
 31 32  1  0
 32 33  1  0
 32 53  1  0
 32 54  1  0
 33 34  1  0
 33 55  1  0
 33 56  1  0
 34 35  1  0
 35 36  1  0
 35 57  1  0
 35 58  1  0
 36 59  1  0
 36 60  1  0
M  END
> <Name>
CHEMBL322395

$$$$
CHEMBL130242
  SciTegic01042613403D

 67 70  0  0  0  0            999 V2000
   -0.6326    1.6747   -0.3777 C   0  0
   -0.7802    0.2543   -0.4288 O   0  0
   -0.1006   -0.4023   -1.4066 C   0  0
    0.6814    0.3018   -2.2765 C   0  0
    1.3835   -0.3725   -3.2861 C   0  0
    1.2795   -1.7800   -3.4001 C   0  0
    0.4691   -2.4813   -2.4944 C   0  0
   -0.2048   -1.7964   -1.5087 C   0  0
   -0.9838   -2.4782   -0.6290 O   0  0
   -1.0492   -3.8972   -0.7849 C   0  0
   -1.9672   -4.4863    0.2880 C   0  0
   -2.0372   -6.0055    0.1212 C   0  0
   -2.9552   -6.5947    1.1941 C   0  0
   -3.0252   -8.1139    1.0272 C   0  0
   -3.9067   -8.6796    2.0574 N   0  0
   -3.3281   -8.5079    3.3979 C   0  0
   -4.3036   -9.0560    4.4429 C   0  0
   -4.5899  -10.4259    4.1481 O   0  0
   -5.1552  -10.6295    2.8503 C   0  0
   -4.1883  -10.0973    1.7892 C   0  0
    1.9490   -2.4311   -4.3627 N   0  0
    2.7125   -1.8051   -5.2214 C   0  0
    2.8741   -0.4108   -5.1827 C   0  0
    2.2011    0.3315   -4.2004 C   0  0
    2.3334    1.7037   -4.1283 N   0  0
    2.7300    2.4282   -5.2566 C   0  0
    3.9635    3.0651   -5.2754 C   0  0
    4.3537    3.7817   -6.3952 C   0  0
    3.5111    3.8618   -7.4962 C   0  0
    2.2826    3.2275   -7.4764 C   0  0
    1.8923    2.5067   -6.3630 C   0  0
    0.3526    1.7051   -6.3442 Cl  0  0
    4.0005    4.7598   -8.8990 Cl  0  0
    5.5608    4.4067   -6.4160 O   0  0
    6.4239    4.1880   -5.2982 C   0  0
    3.7165    0.2467   -6.1359 C   0  0
    4.3848    0.7683   -6.8921 N   0  0
    0.4170    1.9256   -0.2240 H   0  0
   -0.9765    2.1097   -1.3161 H   0  0
   -1.2255    2.0722    0.4460 H   0  0
    0.7588    1.3754   -2.1877 H   0  0
    0.3784   -3.5551   -2.5671 H   0  0
   -1.4441   -4.1364   -1.7722 H   0  0
   -0.0502   -4.3206   -0.6807 H   0  0
   -1.5723   -4.2470    1.2754 H   0  0
   -2.9662   -4.0629    0.1839 H   0  0
   -2.4321   -6.2448   -0.8662 H   0  0
   -1.0382   -6.4289    0.2254 H   0  0
   -2.5603   -6.3554    2.1815 H   0  0
   -3.9542   -6.1713    1.0899 H   0  0
   -3.4201   -8.3532    0.0399 H   0  0
   -2.0263   -8.5373    1.1314 H   0  0
   -2.3853   -9.0513    3.4598 H   0  0
   -3.1515   -7.4487    3.5852 H   0  0
   -3.8548   -8.9830    5.4335 H   0  0
   -5.2271   -8.4776    4.4175 H   0  0
   -5.3222  -11.6945    2.6890 H   0  0
   -6.1034  -10.0968    2.7786 H   0  0
   -4.6395  -10.1984    0.8022 H   0  0
   -3.2592  -10.6661    1.8254 H   0  0
    3.2314   -2.3748   -5.9782 H   0  0
    2.1513    2.1654   -3.2948 H   0  0
    4.6177    3.0024   -4.4184 H   0  0
    1.6287    3.2917   -8.3335 H   0  0
    5.9691    4.6069   -4.4006 H   0  0
    6.5777    3.1175   -5.1619 H   0  0
    7.3832    4.6727   -5.4796 H   0  0
  1  2  1  0
  1 38  1  0
  1 39  1  0
  1 40  1  0
  2  3  1  0
  3  8  2  0
  3  4  1  0
  4  5  2  0
  4 41  1  0
  5 24  1  0
  5  6  1  0
  6  7  2  0
  6 21  1  0
  7  8  1  0
  7 42  1  0
  8  9  1  0
  9 10  1  0
 10 11  1  0
 10 43  1  0
 10 44  1  0
 11 12  1  0
 11 45  1  0
 11 46  1  0
 12 13  1  0
 12 47  1  0
 12 48  1  0
 13 14  1  0
 13 49  1  0
 13 50  1  0
 14 15  1  0
 14 51  1  0
 14 52  1  0
 15 20  1  0
 15 16  1  0
 16 17  1  0
 16 53  1  0
 16 54  1  0
 17 18  1  0
 17 55  1  0
 17 56  1  0
 18 19  1  0
 19 20  1  0
 19 57  1  0
 19 58  1  0
 20 59  1  0
 20 60  1  0
 21 22  2  0
 22 23  1  0
 22 61  1  0
 23 24  2  0
 23 36  1  0
 24 25  1  0
 25 26  1  0
 25 62  1  0
 26 31  2  0
 26 27  1  0
 27 28  2  0
 27 63  1  0
 28 29  1  0
 28 34  1  0
 29 30  2  0
 29 33  1  0
 30 31  1  0
 30 64  1  0
 31 32  1  0
 34 35  1  0
 35 65  1  0
 35 66  1  0
 35 67  1  0
 36 37  3  0
M  END
> <Name>
CHEMBL130242

$$$$
CHEMBL60391
  SciTegic01042613403D

 62 66  0  0  0  0            999 V2000
   -0.7018   -0.1928   -1.0860 C   0  0
   -0.4441   -1.6369   -1.0071 N   0  3  2  0  0  0
   -1.7173   -2.3658   -1.0791 C   0  0
   -1.4479   -3.8709   -1.0159 C   0  0
   -0.7519   -4.1888    0.2389 N   0  0
    0.5132   -3.4470    0.3366 C   0  0
    0.2276   -1.9455    0.2622 C   0  0
   -0.5252   -5.6349    0.3634 C   0  0
   -0.0381   -5.9490    1.7545 C   0  0
    1.3090   -5.9445    2.0390 C   0  0
    1.7135   -6.2352    3.3155 C   0  0
    0.1553   -6.5229    4.1382 S   0  0
   -0.9229   -6.2349    2.7448 C   0  0
    3.0821   -6.2956    3.8670 C   0  0
    4.1815   -6.0255    3.0342 C   0  0
    5.4488   -6.0764    3.5225 C   0  0
    5.6694   -6.4005    4.8705 C   0  0
    4.5715   -6.6749    5.7229 C   0  0
    3.2715   -6.6128    5.2035 C   0  0
    4.7773   -6.9842    7.0117 N   0  0
    5.9787   -7.0447    7.5273 C   0  0
    7.1235   -6.7880    6.7567 C   0  0
    6.9790   -6.4587    5.3996 C   0  0
    8.0794   -6.1997    4.6080 N   0  0
    9.3347   -6.6974    4.9714 C   0  0
   10.3447   -5.8244    5.3525 C   0  0
   11.5874   -6.3207    5.7119 C   0  0
   11.8206   -7.6896    5.6903 C   0  0
   10.8142   -8.5582    5.3101 C   0  0
    9.5711   -8.0671    4.9568 C   0  0
    8.3071   -9.1608    4.4880 Cl  0  0
   13.3778   -8.3109    6.1407 Cl  0  0
   12.5782   -5.4680    6.0850 O   0  0
   12.2363   -4.0849    6.1955 C   0  0
    8.4254   -6.8618    7.3485 C   0  0
    9.4582   -6.9203    7.8180 N   0  0
    0.2430    0.3482   -1.0338 H   0  0
   -1.2002    0.0363   -2.0278 H   0  0
   -1.3393    0.1084   -0.2548 H   0  0
   -2.3506   -2.0746   -0.2411 H   0  0
   -2.2208   -2.1259   -2.0156 H   0  0
   -2.3936   -4.4115   -1.0544 H   0  0
   -0.8259   -4.1648   -1.8614 H   0  0
    0.9982   -3.6785    1.2849 H   0  0
    1.1675   -3.7340   -0.4866 H   0  0
    1.1660   -1.3939    0.3202 H   0  0
   -0.4157   -1.6564    1.0933 H   0  0
   -1.4583   -6.1663    0.1765 H   0  0
    0.2238   -5.9491   -0.3635 H   0  0
    2.0330   -5.7165    1.2707 H   0  0
   -2.0011   -6.2779    2.7004 H   0  0
    4.0178   -5.7756    1.9964 H   0  0
    6.2863   -5.8677    2.8733 H   0  0
    2.4223   -6.8146    5.8395 H   0  0
    6.0921   -7.2978    8.5710 H   0  0
    7.9822   -5.6725    3.7996 H   0  0
   10.1622   -4.7600    5.3685 H   0  0
   10.9981   -9.6223    5.2934 H   0  0
   11.9648   -3.6981    5.2133 H   0  0
   11.3925   -3.9724    6.8763 H   0  0
   13.0909   -3.5290    6.5813 H   0  0
    0.1465   -1.9155   -1.7763 H   0  0
  1  2  1  0
  1 37  1  0
  1 38  1  0
  1 39  1  0
  2  7  1  0
  2  3  1  0
  2 62  1  0
  3  4  1  0
  3 40  1  0
  3 41  1  0
  4  5  1  0
  4 42  1  0
  4 43  1  0
  5  6  1  0
  5  8  1  0
  6  7  1  0
  6 44  1  0
  6 45  1  0
  7 46  1  0
  7 47  1  0
  8  9  1  0
  8 48  1  0
  8 49  1  0
  9 13  2  0
  9 10  1  0
 10 11  2  0
 10 50  1  0
 11 12  1  0
 11 14  1  0
 12 13  1  0
 13 51  1  0
 14 19  2  0
 14 15  1  0
 15 16  2  0
 15 52  1  0
 16 17  1  0
 16 53  1  0
 17 23  2  0
 17 18  1  0
 18 19  1  0
 18 20  2  0
 19 54  1  0
 20 21  1  0
 21 22  2  0
 21 55  1  0
 22 23  1  0
 22 35  1  0
 23 24  1  0
 24 25  1  0
 24 56  1  0
 25 30  2  0
 25 26  1  0
 26 27  2  0
 26 57  1  0
 27 28  1  0
 27 33  1  0
 28 29  2  0
 28 32  1  0
 29 30  1  0
 29 58  1  0
 30 31  1  0
 33 34  1  0
 34 59  1  0
 34 60  1  0
 34 61  1  0
 35 36  3  0
M  CHG  1   2   1
M  END
> <Name>
CHEMBL60391

$$$$
CHEMBL418652
  SciTegic01042613403D

 61 65  0  0  0  0            999 V2000
    3.3561   -2.8778   -0.5534 C   0  0
    1.9287   -2.8104   -0.5622 O   0  0
    1.3588   -1.9052   -1.4012 C   0  0
    2.1489   -1.1816   -2.2804 C   0  0
    1.5646   -0.2580   -3.1359 C   0  0
    0.1884   -0.0613   -3.1087 C   0  0
   -0.5963   -0.7848   -2.2307 C   0  0
   -0.0156   -1.7095   -1.3817 C   0  0
   -1.0057   -2.6218   -0.2857 Cl  0  0
   -0.5444    1.0938   -4.1776 Cl  0  0
    2.3589    0.4741   -4.0238 N   0  0
    2.4989    1.8373   -3.8612 C   0  0
    2.8652    2.6683   -4.9453 C   0  0
    3.0971    2.1312   -6.2210 C   0  0
    3.4479    2.9492   -7.2489 C   0  0
    3.5818    4.3318   -7.0491 C   0  0
    3.3590    4.8881   -5.8012 C   0  0
    2.9965    4.0616   -4.7287 C   0  0
    2.7750    4.5803   -3.5117 N   0  0
    2.4346    3.8348   -2.4915 C   0  0
    2.2769    2.4452   -2.6158 C   0  0
    1.8981    1.6558   -1.4827 C   0  0
    1.5975    1.0295   -0.5838 N   0  0
    3.9657    5.2042   -8.1844 C   0  0
    4.1905    4.6691   -9.4497 C   0  0
    4.5391    5.4969  -10.4598 C   0  0
    4.5646    7.0888   -9.6535 S   0  0
    4.1020    6.5546   -8.0144 C   0  0
    4.8320    5.1611  -11.8994 C   0  0
    3.5903    5.2319  -12.6812 N   0  3
    2.6600    4.1972  -12.2139 C   0  0
    1.3349    4.3185  -12.9693 C   0  0
    1.5899    4.1384  -14.4686 C   0  0  2  0  0  0
    2.6179    5.1757  -14.9297 C   0  0
    3.8955    5.0226  -14.1016 C   0  0
    0.3686    4.3241  -15.1868 O   0  0
    3.7104   -3.2043   -1.5311 H   0  0
    3.7650   -1.8926   -0.3290 H   0  0
    3.6815   -3.5880    0.2068 H   0  0
    3.2177   -1.3358   -2.2994 H   0  0
   -1.6651   -0.6310   -2.2106 H   0  0
    2.8115    0.0237   -4.7540 H   0  0
    2.9972    1.0686   -6.3861 H   0  0
    3.6255    2.5308   -8.2286 H   0  0
    3.4636    5.9530   -5.6549 H   0  0
    2.2673    4.3002   -1.5314 H   0  0
    4.0881    3.6078   -9.6218 H   0  0
    3.9666    7.1445   -7.1199 H   0  0
    5.5540    5.8733  -12.2990 H   0  0
    5.2432    4.1536  -11.9611 H   0  0
    3.0918    3.2127  -12.3943 H   0  0
    2.4820    4.3247  -11.1461 H   0  0
    0.6462    3.5482  -12.6222 H   0  0
    0.9021    5.3025  -12.7894 H   0  0
    1.9749    3.1359  -14.6550 H   0  0
    2.8463    5.0181  -15.9838 H   0  0
    2.2117    6.1775  -14.7904 H   0  0
    4.6296    5.7595  -14.4274 H   0  0
    4.3010    4.0206  -14.2418 H   0  0
    0.4564    4.2243  -16.1446 H   0  0
    3.1686    6.1404  -12.5592 H   0  0
  1  2  1  0
  1 37  1  0
  1 38  1  0
  1 39  1  0
  2  3  1  0
  3  8  2  0
  3  4  1  0
  4  5  2  0
  4 40  1  0
  5  6  1  0
  5 11  1  0
  6  7  2  0
  6 10  1  0
  7  8  1  0
  7 41  1  0
  8  9  1  0
 11 12  1  0
 11 42  1  0
 12 21  2  0
 12 13  1  0
 13 18  2  0
 13 14  1  0
 14 15  2  0
 14 43  1  0
 15 16  1  0
 15 44  1  0
 16 17  2  0
 16 24  1  0
 17 18  1  0
 17 45  1  0
 18 19  1  0
 19 20  2  0
 20 21  1  0
 20 46  1  0
 21 22  1  0
 22 23  3  0
 24 28  2  0
 24 25  1  0
 25 26  2  0
 25 47  1  0
 26 27  1  0
 26 29  1  0
 27 28  1  0
 28 48  1  0
 29 30  1  0
 29 49  1  0
 29 50  1  0
 30 35  1  0
 30 31  1  0
 30 61  1  0
 31 32  1  0
 31 51  1  0
 31 52  1  0
 32 33  1  0
 32 53  1  0
 32 54  1  0
 33 34  1  0
 33 36  1  0
 33 55  1  0
 34 35  1  0
 34 56  1  0
 34 57  1  0
 35 58  1  0
 35 59  1  0
 36 60  1  0
M  CHG  1  30   1
M  END
> <Name>
CHEMBL418652

$$$$
CHEMBL129776
  SciTegic01042613403D

 54 57  0  0  0  0            999 V2000
   -0.6326    1.6747   -0.3777 C   0  0
   -0.7802    0.2543   -0.4288 O   0  0
   -0.1006   -0.4023   -1.4066 C   0  0
    0.6814    0.3018   -2.2765 C   0  0
    1.3835   -0.3725   -3.2861 C   0  0
    1.2795   -1.7800   -3.4001 C   0  0
    0.4691   -2.4813   -2.4944 C   0  0
   -0.2048   -1.7964   -1.5087 C   0  0
   -0.9838   -2.4782   -0.6290 O   0  0
   -1.0492   -3.8972   -0.7849 C   0  0
   -1.9672   -4.4863    0.2880 C   0  0
   -2.0372   -6.0055    0.1212 C   0  0
   -2.9162   -6.5696    1.1485 N   0  0
   -2.5267   -6.9553    2.3118 N   0  0
   -3.5664   -7.4064    2.9765 C   0  0
   -4.6590   -7.2686    2.1173 C   0  0
   -4.1833   -6.7415    1.0118 N   0  0
    1.9490   -2.4311   -4.3627 N   0  0
    2.7125   -1.8051   -5.2214 C   0  0
    2.8741   -0.4108   -5.1827 C   0  0
    2.2011    0.3315   -4.2004 C   0  0
    2.3334    1.7037   -4.1283 N   0  0
    2.7300    2.4282   -5.2566 C   0  0
    3.9635    3.0651   -5.2754 C   0  0
    4.3537    3.7817   -6.3952 C   0  0
    3.5111    3.8618   -7.4962 C   0  0
    2.2826    3.2275   -7.4764 C   0  0
    1.8923    2.5067   -6.3630 C   0  0
    0.3526    1.7051   -6.3442 Cl  0  0
    4.0005    4.7598   -8.8990 Cl  0  0
    5.5608    4.4067   -6.4160 O   0  0
    6.4239    4.1880   -5.2982 C   0  0
    3.7165    0.2467   -6.1359 C   0  0
    4.3848    0.7683   -6.8921 N   0  0
    0.4170    1.9256   -0.2240 H   0  0
   -0.9765    2.1097   -1.3161 H   0  0
   -1.2255    2.0722    0.4460 H   0  0
    0.7588    1.3754   -2.1877 H   0  0
    0.3784   -3.5551   -2.5671 H   0  0
   -1.4441   -4.1364   -1.7722 H   0  0
   -0.0502   -4.3206   -0.6807 H   0  0
   -1.5723   -4.2470    1.2754 H   0  0
   -2.9662   -4.0629    0.1839 H   0  0
   -2.4321   -6.2448   -0.8662 H   0  0
   -1.0382   -6.4289    0.2254 H   0  0
   -3.5745   -7.8027    3.9811 H   0  0
   -5.6852   -7.5363    2.3214 H   0  0
    3.2314   -2.3748   -5.9782 H   0  0
    2.1513    2.1654   -3.2948 H   0  0
    4.6177    3.0024   -4.4184 H   0  0
    1.6287    3.2917   -8.3335 H   0  0
    5.9691    4.6069   -4.4006 H   0  0
    6.5777    3.1175   -5.1619 H   0  0
    7.3832    4.6727   -5.4796 H   0  0
  1  2  1  0
  1 35  1  0
  1 36  1  0
  1 37  1  0
  2  3  1  0
  3  8  2  0
  3  4  1  0
  4  5  2  0
  4 38  1  0
  5 21  1  0
  5  6  1  0
  6  7  2  0
  6 18  1  0
  7  8  1  0
  7 39  1  0
  8  9  1  0
  9 10  1  0
 10 11  1  0
 10 40  1  0
 10 41  1  0
 11 12  1  0
 11 42  1  0
 11 43  1  0
 12 13  1  0
 12 44  1  0
 12 45  1  0
 13 17  1  0
 13 14  1  0
 14 15  2  0
 15 16  1  0
 15 46  1  0
 16 17  2  0
 16 47  1  0
 18 19  2  0
 19 20  1  0
 19 48  1  0
 20 21  2  0
 20 33  1  0
 21 22  1  0
 22 23  1  0
 22 49  1  0
 23 28  2  0
 23 24  1  0
 24 25  2  0
 24 50  1  0
 25 26  1  0
 25 31  1  0
 26 27  2  0
 26 30  1  0
 27 28  1  0
 27 51  1  0
 28 29  1  0
 31 32  1  0
 32 52  1  0
 32 53  1  0
 32 54  1  0
 33 34  3  0
M  END
> <Name>
CHEMBL129776

$$$$
CHEMBL379517
  SciTegic01042613403D

 66 70  0  0  0  0            999 V2000
   -5.9696   -2.5890    0.2299 C   0  0
   -5.0460   -1.4753    0.7275 C   0  0
   -3.6712   -1.7456    0.2863 N   0  3
   -3.6023   -1.6649   -1.1789 C   0  0
   -2.2085   -2.0871   -1.6480 C   0  0
   -2.7637   -0.7515    0.8746 C   0  0
   -2.7410   -0.9187    2.3953 C   0  0
   -2.1763   -2.1889    2.7266 O   0  0
   -2.0825   -2.4972    4.0477 C   0  0
   -2.5307   -1.5970    5.0031 C   0  0
   -2.4359   -1.9093    6.3449 C   0  0
   -1.8921   -3.1253    6.7376 C   0  0
   -1.4441   -4.0261    5.7805 C   0  0
   -1.5440   -3.7142    4.4389 C   0  0
   -1.7951   -3.4426    8.0979 N   0  0
   -2.7605   -2.9943    8.9840 C   0  0
   -3.8239   -2.3644    8.5054 N   0  0
   -4.7762   -1.9164    9.3118 C   0  0
   -4.6362   -2.1222   10.6815 C   0  0
   -3.4930   -2.7957   11.1549 C   0  0
   -2.5902   -3.2158   10.2814 N   0  0
   -3.3371   -3.0087   12.5137 N   0  0
   -2.2467   -3.6766   13.2431 C   0  0
   -2.6590   -3.5878   14.7217 C   0  0
   -3.9794   -2.8592   14.6971 C   0  0
   -4.6466   -2.5831   15.6718 O   0  0
   -4.3026   -2.5622   13.4192 N   0  0
   -5.4475   -1.8901   12.9593 C   0  0
   -5.6427   -1.6587   11.6450 C   0  0
   -6.4557   -1.4272   13.9337 C   0  0
   -7.2486   -2.3529   14.6173 C   0  0
   -8.1893   -1.9124   15.5269 C   0  0
   -8.3483   -0.5583   15.7620 C   0  0
   -7.5670    0.3642   15.0890 C   0  0
   -6.6179   -0.0613   14.1811 C   0  0
   -5.6334    1.0977   13.3438 Cl  0  0
   -7.0517   -4.0525   14.3231 Cl  0  0
   -6.9680   -2.4446    0.6428 H   0  0
   -6.0190   -2.5609   -0.8586 H   0  0
   -5.5798   -3.5549    0.5511 H   0  0
   -5.3770   -0.5199    0.3205 H   0  0
   -5.0772   -1.4368    1.8164 H   0  0
   -4.3489   -2.3287   -1.6148 H   0  0
   -3.7975   -0.6405   -1.4959 H   0  0
   -2.1881   -2.1264   -2.7371 H   0  0
   -1.4724   -1.3641   -1.2966 H   0  0
   -1.9721   -3.0717   -1.2445 H   0  0
   -1.7589   -0.8972    0.4781 H   0  0
   -3.1113    0.2508    0.6244 H   0  0
   -2.1382   -0.1262    2.8390 H   0  0
   -3.7583   -0.8613    2.7824 H   0  0
   -2.9536   -0.6514    4.6975 H   0  0
   -2.7842   -1.2080    7.0887 H   0  0
   -1.0210   -4.9720    6.0851 H   0  0
   -1.1994   -4.4165    3.6943 H   0  0
   -1.0518   -3.9763    8.4197 H   0  0
   -5.6400   -1.4035    8.9154 H   0  0
   -2.1643   -4.7184   12.9333 H   0  0
   -1.3040   -3.1545   13.0793 H   0  0
   -2.7819   -4.5852   15.1437 H   0  0
   -1.9214   -3.0209   15.2896 H   0  0
   -6.5273   -1.1402   11.3058 H   0  0
   -8.8028   -2.6267   16.0559 H   0  0
   -9.0863   -0.2196   16.4741 H   0  0
   -7.6971    1.4197   15.2775 H   0  0
   -3.3975   -2.6696    0.5854 H   0  0
  1  2  1  0
  1 38  1  0
  1 39  1  0
  1 40  1  0
  2  3  1  0
  2 41  1  0
  2 42  1  0
  3  4  1  0
  3  6  1  0
  3 66  1  0
  4  5  1  0
  4 43  1  0
  4 44  1  0
  5 45  1  0
  5 46  1  0
  5 47  1  0
  6  7  1  0
  6 48  1  0
  6 49  1  0
  7  8  1  0
  7 50  1  0
  7 51  1  0
  8  9  1  0
  9 14  2  0
  9 10  1  0
 10 11  2  0
 10 52  1  0
 11 12  1  0
 11 53  1  0
 12 13  2  0
 12 15  1  0
 13 14  1  0
 13 54  1  0
 14 55  1  0
 15 16  1  0
 15 56  1  0
 16 21  2  0
 16 17  1  0
 17 18  2  0
 18 19  1  0
 18 57  1  0
 19 29  1  0
 19 20  2  0
 20 21  1  0
 20 22  1  0
 22 27  1  0
 22 23  1  0
 23 24  1  0
 23 58  1  0
 23 59  1  0
 24 25  1  0
 24 60  1  0
 24 61  1  0
 25 26  2  0
 25 27  1  0
 27 28  1  0
 28 29  2  0
 28 30  1  0
 29 62  1  0
 30 35  2  0
 30 31  1  0
 31 32  2  0
 31 37  1  0
 32 33  1  0
 32 63  1  0
 33 34  2  0
 33 64  1  0
 34 35  1  0
 34 65  1  0
 35 36  1  0
M  CHG  1   3   1
M  END
> <Name>
CHEMBL379517

$$$$
CHEMBL59786
  SciTegic01042613403D

 57 61  0  0  0  0            999 V2000
    3.3561   -2.8778   -0.5534 C   0  0
    1.9287   -2.8104   -0.5622 O   0  0
    1.3588   -1.9052   -1.4012 C   0  0
    2.1489   -1.1816   -2.2804 C   0  0
    1.5646   -0.2580   -3.1359 C   0  0
    0.1884   -0.0613   -3.1087 C   0  0
   -0.5963   -0.7848   -2.2307 C   0  0
   -0.0156   -1.7095   -1.3817 C   0  0
   -1.0057   -2.6218   -0.2857 Cl  0  0
   -0.5444    1.0938   -4.1776 Cl  0  0
    2.3589    0.4741   -4.0238 N   0  0
    2.4989    1.8373   -3.8612 C   0  0
    2.8652    2.6683   -4.9453 C   0  0
    3.0971    2.1312   -6.2210 C   0  0
    3.4479    2.9492   -7.2489 C   0  0
    3.5818    4.3318   -7.0491 C   0  0
    3.3590    4.8881   -5.8012 C   0  0
    2.9965    4.0616   -4.7287 C   0  0
    2.7750    4.5803   -3.5117 N   0  0
    2.4346    3.8348   -2.4915 C   0  0
    2.2769    2.4452   -2.6158 C   0  0
    1.8981    1.6558   -1.4827 C   0  0
    1.5975    1.0295   -0.5838 N   0  0
    3.9657    5.2042   -8.1844 C   0  0
    4.1905    4.6691   -9.4497 C   0  0
    4.5391    5.4969  -10.4598 C   0  0
    4.5646    7.0888   -9.6535 S   0  0
    4.1020    6.5546   -8.0144 C   0  0
    4.8320    5.1611  -11.8994 C   0  0
    3.5903    5.2319  -12.6812 N   0  0
    2.6476    4.1819  -12.2689 C   0  0
    1.3481    4.3290  -13.0649 C   0  0
    1.6426    4.2736  -14.4633 O   0  0
    2.5574    5.2826  -14.8994 C   0  0
    3.8692    5.1451  -14.1220 C   0  0
    3.7104   -3.2043   -1.5311 H   0  0
    3.7650   -1.8926   -0.3290 H   0  0
    3.6815   -3.5880    0.2068 H   0  0
    3.2177   -1.3358   -2.2994 H   0  0
   -1.6651   -0.6310   -2.2106 H   0  0
    2.8115    0.0237   -4.7540 H   0  0
    2.9972    1.0686   -6.3861 H   0  0
    3.6255    2.5308   -8.2286 H   0  0
    3.4636    5.9530   -5.6549 H   0  0
    2.2673    4.3002   -1.5314 H   0  0
    4.0881    3.6078   -9.6218 H   0  0
    3.9666    7.1445   -7.1199 H   0  0
    5.5540    5.8733  -12.2990 H   0  0
    5.2432    4.1536  -11.9611 H   0  0
    3.0851    3.2028  -12.4641 H   0  0
    2.4355    4.2807  -11.2043 H   0  0
    0.6676    3.5186  -12.8038 H   0  0
    0.8829    5.2861  -12.8286 H   0  0
    2.7516    5.1618  -15.9652 H   0  0
    2.1274    6.2674  -14.7165 H   0  0
    4.5488    5.9471  -14.4101 H   0  0
    4.3262    4.1815  -14.3469 H   0  0
  1  2  1  0
  1 36  1  0
  1 37  1  0
  1 38  1  0
  2  3  1  0
  3  8  2  0
  3  4  1  0
  4  5  2  0
  4 39  1  0
  5  6  1  0
  5 11  1  0
  6  7  2  0
  6 10  1  0
  7  8  1  0
  7 40  1  0
  8  9  1  0
 11 12  1  0
 11 41  1  0
 12 21  2  0
 12 13  1  0
 13 18  2  0
 13 14  1  0
 14 15  2  0
 14 42  1  0
 15 16  1  0
 15 43  1  0
 16 17  2  0
 16 24  1  0
 17 18  1  0
 17 44  1  0
 18 19  1  0
 19 20  2  0
 20 21  1  0
 20 45  1  0
 21 22  1  0
 22 23  3  0
 24 28  2  0
 24 25  1  0
 25 26  2  0
 25 46  1  0
 26 27  1  0
 26 29  1  0
 27 28  1  0
 28 47  1  0
 29 30  1  0
 29 48  1  0
 29 49  1  0
 30 35  1  0
 30 31  1  0
 31 32  1  0
 31 50  1  0
 31 51  1  0
 32 33  1  0
 32 52  1  0
 32 53  1  0
 33 34  1  0
 34 35  1  0
 34 54  1  0
 34 55  1  0
 35 56  1  0
 35 57  1  0
M  END
> <Name>
CHEMBL59786

$$$$
