CHEMBL327188
  DSViewer          3D                             0

 56 60  0  0  0  0  0  0  0  0999 V2000
    3.2775   -2.8734   -0.5267 C   0  0
    1.8508   -2.8017   -0.5640 O   0  0
    1.3004   -1.8971   -1.4165 C   0  0
    2.1101   -1.1772   -2.2808 C   0  0
    1.5454   -0.2545   -3.1504 C   0  0
    0.1696   -0.0549   -3.1522 C   0  0
   -0.6346   -0.7745   -2.2890 C   0  0
   -0.0737   -1.6980   -1.4256 C   0  0
   -1.0882   -2.6047   -0.3474 Cl  0  0
   -0.6016    1.2021   -4.3358 Br  0  0
    2.3594    0.4737   -4.0233 N   0  0
    2.4990    1.8363   -3.8610 C   0  0
    2.8661    2.6690   -4.9477 C   0  0
    3.0963    2.1295   -6.2154 C   0  0
    3.4543    2.9667   -7.2625 C   0  0
    3.5844    4.3573   -7.0444 C   0  0
    3.3582    4.8975   -5.7962 C   0  0
    2.9971    4.0647   -4.7305 C   0  0
    2.7745    4.5811   -3.5109 N   0  0
    2.4346    3.8347   -2.4925 C   0  0
    2.2767    2.4439   -2.6171 C   0  0
    1.8973    1.6546   -1.4841 C   0  0
    1.5964    1.0284   -0.5853 N   0  0
    3.9447    4.8982   -8.2649 N   0  0
    4.0222    3.8722   -9.1571 C   0  0
    3.7367    2.7457   -8.5750 N   0  0
    4.1959    6.3138   -8.5464 C   0  0
    5.6456    6.6542   -8.1950 C   0  0
    5.8975    8.0737   -8.4773 N   0  0
    5.8212    8.3455   -9.9201 C   0  0
    6.0300    9.8425  -10.1636 C   0  0
    7.2839   10.2412   -9.6031 O   0  0
    7.3923    9.9914   -8.1991 C   0  0
    7.1973    8.4960   -7.9357 C   0  0
    3.6499   -3.2085   -1.4948 H   0  0
    3.6851   -1.8877   -0.3020 H   0  0
    3.5858   -3.5786    0.2451 H   0  0
    3.1787   -1.3337   -2.2774 H   0  0
   -1.7033   -0.6185   -2.2914 H   0  0
    2.8259    0.0207   -4.7431 H   0  0
    2.9967    1.0667   -6.3796 H   0  0
    3.4604    5.9614   -5.6406 H   0  0
    2.2669    4.2994   -1.5322 H   0  0
    4.2829    3.9794  -10.1997 H   0  0
    4.0228    6.5101   -9.6045 H   0  0
    3.5231    6.9282   -7.9481 H   0  0
    5.8187    6.4579   -7.1369 H   0  0
    6.3184    6.0398   -8.7933 H   0  0
    6.5962    7.7809  -10.4383 H   0  0
    4.8416    8.0489  -10.2950 H   0  0
    6.0312   10.0402  -11.2355 H   0  0
    5.2247   10.4041   -9.6901 H   0  0
    8.3788   10.2969   -7.8502 H   0  0
    6.6266   10.5574   -7.6685 H   0  0
    7.2223    8.3092   -6.8621 H   0  0
    7.9944    7.9337   -8.4222 H   0  0
  1  2  1  0  0  0
  1 35  1  0  0  0
  1 36  1  0  0  0
  1 37  1  0  0  0
  2  3  1  0  0  0
  3  8  2  0  0  0
  3  4  1  0  0  0
  4  5  2  0  0  0
  4 38  1  0  0  0
  5  6  1  0  0  0
  5 11  1  0  0  0
  6  7  2  0  0  0
  6 10  1  0  0  0
  7  8  1  0  0  0
  7 39  1  0  0  0
  8  9  1  0  0  0
 11 12  1  0  0  0
 11 40  1  0  0  0
 12 21  2  0  0  0
 12 13  1  0  0  0
 13 18  2  0  0  0
 13 14  1  0  0  0
 14 15  2  0  0  0
 14 41  1  0  0  0
 15 26  1  0  0  0
 15 16  1  0  0  0
 16 17  2  0  0  0
 16 24  1  0  0  0
 17 18  1  0  0  0
 17 42  1  0  0  0
 18 19  1  0  0  0
 19 20  2  0  0  0
 20 21  1  0  0  0
 20 43  1  0  0  0
 21 22  1  0  0  0
 22 23  3  0  0  0
 24 25  1  0  0  0
 24 27  1  0  0  0
 25 26  2  0  0  0
 25 44  1  0  0  0
 27 28  1  0  0  0
 27 45  1  0  0  0
 27 46  1  0  0  0
 28 29  1  0  0  0
 28 47  1  0  0  0
 28 48  1  0  0  0
 29 34  1  0  0  0
 29 30  1  0  0  0
 30 31  1  0  0  0
 30 49  1  0  0  0
 30 50  1  0  0  0
 31 32  1  0  0  0
 31 51  1  0  0  0
 31 52  1  0  0  0
 32 33  1  0  0  0
 33 34  1  0  0  0
 33 53  1  0  0  0
 33 54  1  0  0  0
 34 55  1  0  0  0
 34 56  1  0  0  0
M  END
$$$$
CHEMBL567678
  SciTegic01042614003D

 64 68  0  0  0  0            999 V2000
   -1.4309    3.6064   16.5153 C   0  0
   -1.0300    3.4544   15.1103 N   0  3  2  0  0  0
   -2.2259    3.4529   14.2576 C   0  0
   -1.8076    3.3135   12.7922 C   0  0
   -1.0581    2.0615   12.6166 N   0  0
    0.1290    2.0380   13.4828 C   0  0
   -0.3052    2.1879   14.9425 C   0  0
   -0.6869    1.8631   11.2092 C   0  0
   -0.1427    0.4700   11.0248 C   0  0
    1.2141    0.2216   11.1796 C   0  0
    1.6736   -1.0714   11.0016 C   0  0
    0.7629   -2.0746   10.6747 C   0  0
   -0.5267   -1.7952   10.5354 N   0  0
   -0.9910   -0.5738   10.7054 C   0  0
    1.2391   -3.4654   10.4806 C   0  0
    2.6016   -3.7641   10.6326 C   0  0
    3.0619   -5.0311   10.4598 C   0  0
    2.1718   -6.0659   10.1236 C   0  0
    0.7951   -5.7726    9.9684 C   0  0
    0.3361   -4.4636   10.1558 C   0  0
   -0.0973   -6.8185    9.6297 C   0  0
    0.4367   -8.1054    9.4640 C   0  0
    1.8152   -8.3038    9.6378 C   0  0
    2.6171   -7.3178    9.9514 N   0  0
   -0.4154   -9.2042    9.1218 C   0  0
   -1.0913  -10.0759    8.8504 N   0  0
   -1.4461   -6.5803    9.4687 N   0  0
   -2.2867   -6.5371   10.5853 C   0  0
   -1.7494   -6.6147   11.8631 C   0  0
   -2.5850   -6.5711   12.9674 C   0  0
   -3.9577   -6.4500   12.7946 C   0  0
   -4.4919   -6.3732   11.5216 C   0  0
   -3.6607   -6.4106   10.4174 C   0  0
   -4.3340   -6.3069    8.8206 Cl  0  0
   -5.0042   -6.3954   14.1786 Cl  0  0
   -2.0615   -6.6473   14.2197 O   0  0
   -0.6366   -6.6502   14.3281 C   0  0
   -0.5434    3.6089   17.1482 H   0  0
   -1.9688    4.5462   16.6401 H   0  0
   -2.0780    2.7768   16.8003 H   0  0
   -2.8677    2.6161   14.5334 H   0  0
   -2.7698    4.3878   14.3928 H   0  0
   -2.6957    3.2974   12.1604 H   0  0
   -1.1770    4.1573   12.5122 H   0  0
    0.6539    1.0913   13.3549 H   0  0
    0.7916    2.8608   13.2142 H   0  0
    0.5749    2.1850   15.5855 H   0  0
   -0.9568    1.3576   15.2148 H   0  0
   -1.5664    1.9960   10.5793 H   0  0
    0.0745    2.5908   10.9282 H   0  0
    1.8961    1.0199   11.4330 H   0  0
    2.7231   -1.3000   11.1140 H   0  0
   -2.0479   -0.3847   10.5887 H   0  0
    3.2941   -2.9763   10.8900 H   0  0
    4.1140   -5.2434   10.5807 H   0  0
   -0.7131   -4.2332   10.0434 H   0  0
    2.2246   -9.2950    9.5102 H   0  0
   -1.8117   -6.4428    8.5808 H   0  0
   -0.6818   -6.7092   11.9961 H   0  0
   -5.5597   -6.2794   11.3897 H   0  0
   -0.2365   -7.5362   13.8351 H   0  0
   -0.2341   -5.7564   13.8515 H   0  0
   -0.3523   -6.6603   15.3803 H   0  0
   -0.4306    4.2221   14.8469 H   0  0
  1  2  1  0
  1 38  1  0
  1 39  1  0
  1 40  1  0
  2  7  1  0
  2  3  1  0
  2 64  1  0
  3  4  1  0
  3 41  1  0
  3 42  1  0
  4  5  1  0
  4 43  1  0
  4 44  1  0
  5  6  1  0
  5  8  1  0
  6  7  1  0
  6 45  1  0
  6 46  1  0
  7 47  1  0
  7 48  1  0
  8  9  1  0
  8 49  1  0
  8 50  1  0
  9 14  2  0
  9 10  1  0
 10 11  2  0
 10 51  1  0
 11 12  1  0
 11 52  1  0
 12 13  2  0
 12 15  1  0
 13 14  1  0
 14 53  1  0
 15 20  2  0
 15 16  1  0
 16 17  2  0
 16 54  1  0
 17 18  1  0
 17 55  1  0
 18 24  2  0
 18 19  1  0
 19 20  1  0
 19 21  2  0
 20 56  1  0
 21 22  1  0
 21 27  1  0
 22 23  2  0
 22 25  1  0
 23 24  1  0
 23 57  1  0
 25 26  3  0
 27 28  1  0
 27 58  1  0
 28 33  2  0
 28 29  1  0
 29 30  2  0
 29 59  1  0
 30 31  1  0
 30 36  1  0
 31 32  2  0
 31 35  1  0
 32 33  1  0
 32 60  1  0
 33 34  1  0
 36 37  1  0
 37 61  1  0
 37 62  1  0
 37 63  1  0
M  CHG  1   2   1
M  END
> <Name>
CHEMBL567678

$$$$
CHEMBL340350
  SciTegic01042614003D

 70 73  0  0  0  0            999 V2000
   -0.0517    1.6764    0.7356 C   0  0
    0.0135    0.2578    0.8940 O   0  0
   -1.1563   -0.4287    0.7966 C   0  0
   -2.3179    0.2456    0.5518 C   0  0
   -3.5259   -0.4597    0.4508 C   0  0
   -3.5373   -1.8674    0.6029 C   0  0
   -2.3305   -2.5377    0.8543 C   0  0
   -1.1576   -1.8228    0.9428 C   0  0
    0.0105   -2.4747    1.1799 O   0  0
   -0.0562   -3.8953    1.3195 C   0  0
    1.3463   -4.4485    1.5802 C   0  0
    1.2750   -5.9695    1.7295 C   0  0
    2.6215   -6.5006    1.9798 N   0  3
    2.5531   -7.9610    2.1233 C   0  0
    3.9555   -8.5142    2.3839 C   0  0
    3.8870   -9.9745    2.5274 N   0  0
    3.1396  -10.3507    3.7361 C   0  0
    3.0414  -11.8765    3.8147 C   0  0
    4.3576  -12.4355    3.7961 O   0  0
    5.1136  -12.0898    2.6323 C   0  0
    5.2328  -10.5662    2.5418 C   0  0
   -4.6890   -2.5480    0.5066 N   0  0
   -5.8298   -1.9512    0.2724 C   0  0
   -5.9120   -0.5591    0.1082 C   0  0
   -4.7438    0.2131    0.1974 C   0  0
   -4.7819    1.5843    0.0419 N   0  0
   -5.9752    2.2798    0.2600 C   0  0
   -6.6239    2.8969   -0.8010 C   0  0
   -7.8064    3.5848   -0.5816 C   0  0
   -8.3406    3.6560    0.6983 C   0  0
   -7.6936    3.0414    1.7546 C   0  0
   -6.5165    2.3492    1.5385 C   0  0
   -5.7107    1.5722    2.8653 Cl  0  0
   -9.8223    4.5181    0.9727 Cl  0  0
   -8.4433    4.1904   -1.6188 O   0  0
   -7.9013    3.9807   -2.9243 C   0  0
   -7.1748    0.0661   -0.1470 C   0  0
   -8.1766    0.5620   -0.3496 N   0  0
    0.9478    2.0996    0.8360 H   0  0
   -0.4494    1.9140   -0.2511 H   0  0
   -0.7032    2.0979    1.5011 H   0  0
   -2.3065    1.3194    0.4366 H   0  0
   -2.3213   -3.6112    0.9729 H   0  0
   -0.7077   -4.1480    2.1559 H   0  0
   -0.4546   -4.3320    0.4037 H   0  0
    1.9979   -4.1957    0.7437 H   0  0
    1.7447   -4.0117    2.4959 H   0  0
    0.6234   -6.2222    2.5660 H   0  0
    0.8766   -6.4062    0.8138 H   0  0
    3.2247   -6.2666    1.2055 H   0  0
    1.9015   -8.2137    2.9597 H   0  0
    2.1547   -8.3977    1.2075 H   0  0
    4.6071   -8.2614    1.5475 H   0  0
    4.3539   -8.0774    3.2997 H   0  0
    3.6588   -9.9736    4.6172 H   0  0
    2.1379   -9.9233    3.6924 H   0  0
    2.5378  -12.1618    4.7383 H   0  0
    2.4756  -12.2493    2.9608 H   0  0
    6.1087  -12.5293    2.7009 H   0  0
    4.6080  -12.4688    1.7441 H   0  0
    5.7590  -10.2960    1.6263 H   0  0
    5.7855  -10.1925    3.4038 H   0  0
   -6.7300   -2.5439    0.2034 H   0  0
   -3.9809    2.0653   -0.2186 H   0  0
   -6.2072    2.8411   -1.7959 H   0  0
   -8.1106    3.0987    2.7492 H   0  0
   -8.5499    4.4466   -3.6661 H   0  0
   -6.9074    4.4245   -2.9807 H   0  0
   -7.8333    2.9109   -3.1219 H   0  0
    2.9903   -6.0963    2.8276 H   0  0
  1  2  1  0
  1 39  1  0
  1 40  1  0
  1 41  1  0
  2  3  1  0
  3  8  2  0
  3  4  1  0
  4  5  2  0
  4 42  1  0
  5 25  1  0
  5  6  1  0
  6  7  2  0
  6 22  1  0
  7  8  1  0
  7 43  1  0
  8  9  1  0
  9 10  1  0
 10 11  1  0
 10 44  1  0
 10 45  1  0
 11 12  1  0
 11 46  1  0
 11 47  1  0
 12 13  1  0
 12 48  1  0
 12 49  1  0
 13 14  1  0
 13 50  1  0
 13 70  1  0
 14 15  1  0
 14 51  1  0
 14 52  1  0
 15 16  1  0
 15 53  1  0
 15 54  1  0
 16 21  1  0
 16 17  1  0
 17 18  1  0
 17 55  1  0
 17 56  1  0
 18 19  1  0
 18 57  1  0
 18 58  1  0
 19 20  1  0
 20 21  1  0
 20 59  1  0
 20 60  1  0
 21 61  1  0
 21 62  1  0
 22 23  2  0
 23 24  1  0
 23 63  1  0
 24 25  2  0
 24 37  1  0
 25 26  1  0
 26 27  1  0
 26 64  1  0
 27 32  2  0
 27 28  1  0
 28 29  2  0
 28 65  1  0
 29 30  1  0
 29 35  1  0
 30 31  2  0
 30 34  1  0
 31 32  1  0
 31 66  1  0
 32 33  1  0
 35 36  1  0
 36 67  1  0
 36 68  1  0
 36 69  1  0
 37 38  3  0
M  CHG  1  13   1
M  END
> <Name>
CHEMBL340350

$$$$
CHEMBL51485
  SciTegic01042614003D

 73 77  0  0  0  0            999 V2000
   -0.0178    1.4648    0.0101 C   0  0
    0.0021   -0.0041    0.0020 N   0  0
   -1.3607   -0.5489   -0.0764 C   0  0
   -1.2932   -2.0762   -0.1426 C   0  0
   -0.6107   -2.5886    1.0529 N   0  3
    0.7570   -2.0553    1.1043 C   0  0
    0.7065   -0.5278    1.1808 C   0  0
   -0.5621   -4.0557    0.9977 C   0  0
    0.0360   -4.5955    2.2984 C   0  0
    0.0866   -6.1236    2.2409 C   0  0
    0.6594   -6.6404    3.4863 N   0  0
    0.8060   -8.0028    3.6663 C   0  0
    0.4229   -8.8207    2.6882 N   0  0
    0.5383  -10.1284    2.8022 C   0  0
    1.0794  -10.6528    3.9886 C   0  0
    1.2353  -12.0347    4.1860 C   0  0
    1.7783  -12.4621    5.3871 C   0  0
    2.1514  -11.5085    6.3582 C   0  0
    1.9949  -10.2172    6.1497 N   0  0
    1.4776   -9.7522    5.0111 C   0  0
    1.3249   -8.4391    4.7982 N   0  0
    2.6947  -11.9406    7.5595 N   0  0
    3.0561  -11.0427    8.4973 C   0  0
    2.9061   -9.8541    8.2907 O   0  0
    3.5839  -11.4625    9.6643 N   0  0
    3.9768  -10.4865   10.6837 C   0  0
    4.5340  -11.2093   11.8829 C   0  0
    3.6916  -11.6015   12.9064 C   0  0
    4.2027  -12.2646   14.0064 C   0  0
    5.5560  -12.5358   14.0827 C   0  0
    6.3982  -12.1444   13.0588 C   0  0
    5.8865  -11.4852   11.9568 C   0  0
    1.9653  -13.9092    5.6499 C   0  0
    0.9461  -14.6496    6.2488 C   0  0
    1.1264  -15.9976    6.4905 C   0  0
    2.3144  -16.6133    6.1402 C   0  0
    3.3290  -15.8844    5.5465 C   0  0
    3.1590  -14.5370    5.2942 C   0  0
    4.4309  -13.6255    4.5425 Cl  0  0
   -0.5455  -13.8787    6.6897 Cl  0  0
    1.0047    1.8421    0.0024 H   0  0
   -0.5450    1.8259   -0.8730 H   0  0
   -0.5280    1.8163    0.9069 H   0  0
   -1.9242   -0.2477    0.8067 H   0  0
   -1.8539   -0.1676   -0.9705 H   0  0
   -2.3035   -2.4830   -0.1865 H   0  0
   -0.7413   -2.3773   -1.0330 H   0  0
    1.2666   -2.4465    1.9848 H   0  0
    1.2983   -2.3564    0.2075 H   0  0
    1.7215   -0.1310    1.2040 H   0  0
    0.1771   -0.2262    2.0846 H   0  0
   -1.5711   -4.4482    0.8715 H   0  0
    0.0569   -4.3674    0.1563 H   0  0
    1.0451   -4.2031    2.4246 H   0  0
   -0.5829   -4.2839    3.1397 H   0  0
   -0.9224   -6.5160    2.1146 H   0  0
    0.7056   -6.4352    1.3995 H   0  0
    0.9356   -6.0264    4.1846 H   0  0
    0.2238  -10.7824    2.0023 H   0  0
    0.9406  -12.7423    3.4252 H   0  0
    2.8144  -12.8890    7.7244 H   0  0
    3.7036  -12.4109    9.8291 H   0  0
    4.7370   -9.8206   10.2753 H   0  0
    3.1060   -9.9034   10.9832 H   0  0
    2.6343  -11.3896   12.8468 H   0  0
    3.5447  -12.5704   14.8064 H   0  0
    5.9554  -13.0532   14.9425 H   0  0
    7.4556  -12.3561   13.1186 H   0  0
    6.5439  -11.1827   11.1551 H   0  0
    0.3382  -16.5720    6.9545 H   0  0
    2.4505  -17.6675    6.3313 H   0  0
    4.2545  -16.3708    5.2756 H   0  0
   -1.1152   -2.2999    1.8777 H   0  0
  1  2  1  0
  1 41  1  0
  1 42  1  0
  1 43  1  0
  2  7  1  0
  2  3  1  0
  3  4  1  0
  3 44  1  0
  3 45  1  0
  4  5  1  0
  4 46  1  0
  4 47  1  0
  5  6  1  0
  5  8  1  0
  5 73  1  0
  6  7  1  0
  6 48  1  0
  6 49  1  0
  7 50  1  0
  7 51  1  0
  8  9  1  0
  8 52  1  0
  8 53  1  0
  9 10  1  0
  9 54  1  0
  9 55  1  0
 10 11  1  0
 10 56  1  0
 10 57  1  0
 11 12  1  0
 11 58  1  0
 12 21  2  0
 12 13  1  0
 13 14  2  0
 14 15  1  0
 14 59  1  0
 15 20  2  0
 15 16  1  0
 16 17  2  0
 16 60  1  0
 17 18  1  0
 17 33  1  0
 18 19  2  0
 18 22  1  0
 19 20  1  0
 20 21  1  0
 22 23  1  0
 22 61  1  0
 23 24  2  0
 23 25  1  0
 25 26  1  0
 25 62  1  0
 26 27  1  0
 26 63  1  0
 26 64  1  0
 27 32  2  0
 27 28  1  0
 28 29  2  0
 28 65  1  0
 29 30  1  0
 29 66  1  0
 30 31  2  0
 30 67  1  0
 31 32  1  0
 31 68  1  0
 32 69  1  0
 33 38  2  0
 33 34  1  0
 34 35  2  0
 34 40  1  0
 35 36  1  0
 35 70  1  0
 36 37  2  0
 36 71  1  0
 37 38  1  0
 37 72  1  0
 38 39  1  0
M  CHG  1   5   1
M  END
> <Name>
CHEMBL51485

$$$$
CHEMBL296844
  SciTegic01042614003D

 61 64  0  0  0  0            999 V2000
    4.6983   -2.8006    5.4753 C   0  0
    6.0455   -3.0488    6.0057 N   0  3  2  0  0  0
    5.9554   -3.9395    7.1689 C   0  0
    7.3616   -4.2664    7.6759 C   0  0
    8.0677   -2.9684    8.0784 C   0  0
    8.0900   -2.0176    6.8781 C   0  0
    6.6568   -1.7741    6.4006 C   0  0  1  0  0  0
    6.6739   -0.8242    5.2013 C   0  0
    7.5279   -1.3546    4.1857 O   0  0
    7.6551   -0.6276    3.0451 C   0  0
    6.9780    0.5640    2.9183 C   0  0
    7.1077    1.3168    1.7412 C   0  0
    7.9375    0.8331    0.7008 C   0  0
    8.6167   -0.3842    0.8558 C   0  0
    8.4789   -1.0963    2.0125 C   0  0
    9.1427   -2.2737    2.1619 O   0  0
    9.9664   -2.6968    1.0735 C   0  0
    8.0663    1.5940   -0.4843 C   0  0
    7.3568    2.8017   -0.5671 C   0  0
    6.5567    3.2043    0.5143 C   0  0
    6.4561    2.4805    1.5998 N   0  0
    7.4482    3.6154   -1.7419 C   0  0
    7.5206    4.2609   -2.6739 N   0  0
    8.8641    1.1629   -1.5252 N   0  0
   10.2413    1.4029   -1.4962 C   0  0
   10.8249    1.9675   -0.3701 C   0  0
   12.1899    2.2041   -0.3447 C   0  0
   12.9716    1.8765   -1.4448 C   0  0
   12.3894    1.3143   -2.5660 C   0  0
   11.0287    1.0714   -2.5928 C   0  0
   10.3020    0.3583   -3.9989 Cl  0  0
   14.6816    2.1737   -1.4127 Cl  0  0
   12.7637    2.7572    0.7566 O   0  0
   11.9232    2.9573    1.8949 C   0  0
    4.7646   -2.1445    4.6074 H   0  0
    4.2434   -3.7466    5.1817 H   0  0
    4.0871   -2.3264    6.2433 H   0  0
    5.3897   -3.4472    7.9599 H   0  0
    5.4498   -4.8614    6.8817 H   0  0
    7.2925   -4.9263    8.5407 H   0  0
    7.9281   -4.7590    6.8857 H   0  0
    7.5297   -2.5015    8.9034 H   0  0
    9.0894   -3.1899    8.3870 H   0  0
    8.5415   -1.0702    7.1726 H   0  0
    8.6716   -2.4635    6.0713 H   0  0
    6.0762   -1.3279    7.2080 H   0  0
    5.6632   -0.7182    4.8073 H   0  0
    7.0456    0.1511    5.5156 H   0  0
    6.3489    0.9182    3.7216 H   0  0
    9.2499   -0.7555    0.0636 H   0  0
   10.7364   -1.9479    0.8881 H   0  0
   10.4370   -3.6479    1.3224 H   0  0
    9.3540   -2.8172    0.1799 H   0  0
    6.0117    4.1344    0.4489 H   0  0
    8.4693    0.6934   -2.2766 H   0  0
   10.2159    2.2222    0.4847 H   0  0
   12.9993    1.0606   -3.4204 H   0  0
   11.4838    2.0056    2.1938 H   0  0
   12.5151    3.3586    2.7175 H   0  0
   11.1296    3.6603    1.6415 H   0  0
    6.6111   -3.4854    5.2933 H   0  0
  1  2  1  0
  1 35  1  0
  1 36  1  0
  1 37  1  0
  2  7  1  0
  2  3  1  0
  2 61  1  0
  3  4  1  0
  3 38  1  0
  3 39  1  0
  4  5  1  0
  4 40  1  0
  4 41  1  0
  5  6  1  0
  5 42  1  0
  5 43  1  0
  6  7  1  0
  6 44  1  0
  6 45  1  0
  7  8  1  0
  7 46  1  0
  8  9  1  0
  8 47  1  0
  8 48  1  0
  9 10  1  0
 10 15  2  0
 10 11  1  0
 11 12  2  0
 11 49  1  0
 12 21  1  0
 12 13  1  0
 13 14  2  0
 13 18  1  0
 14 15  1  0
 14 50  1  0
 15 16  1  0
 16 17  1  0
 17 51  1  0
 17 52  1  0
 17 53  1  0
 18 19  2  0
 18 24  1  0
 19 20  1  0
 19 22  1  0
 20 21  2  0
 20 54  1  0
 22 23  3  0
 24 25  1  0
 24 55  1  0
 25 30  2  0
 25 26  1  0
 26 27  2  0
 26 56  1  0
 27 28  1  0
 27 33  1  0
 28 29  2  0
 28 32  1  0
 29 30  1  0
 29 57  1  0
 30 31  1  0
 33 34  1  0
 34 58  1  0
 34 59  1  0
 34 60  1  0
M  CHG  1   2   1
M  END
> <Name>
CHEMBL296844

$$$$
CHEMBL299194
  SciTegic01042614003D

 58 61  0  0  0  0            999 V2000
   -0.0178    1.4608    0.0101 C   0  0
    0.0021   -0.0041    0.0020 N   0  0
   -1.1808   -0.6992    0.0039 C   0  0
   -1.1793   -2.1109   -0.0037 C   0  0
    0.0431   -2.8209   -0.0135 C   0  0
    1.2184   -2.1187   -0.0153 C   0  0
    1.1813   -0.6547   -0.0127 C   0  0
    2.2223   -0.0221   -0.0197 O   0  0
    2.5161   -2.8335   -0.0249 C   0  0
    3.1327   -3.1828    1.1772 C   0  0
    4.3424   -3.8490    1.1613 C   0  0
    4.9428   -4.1701   -0.0429 C   0  0
    4.3369   -3.8268   -1.2380 C   0  0
    3.1243   -3.1655   -1.2361 C   0  0
    2.3618   -2.7423   -2.7372 Cl  0  0
    2.3811   -2.7803    2.6894 Cl  0  0
   -2.4105   -2.7832   -0.0019 C   0  0
   -3.5204   -2.0689    0.0069 N   0  0
   -3.4836   -0.7410    0.0139 C   0  0
   -2.3465   -0.0625    0.0125 N   0  0
   -4.6746   -0.0428    0.0225 N   0  0
   -5.9482   -0.7668    0.0237 C   0  0
   -7.1044    0.2351    0.0338 C   0  0
   -8.4345   -0.5211    0.0350 C   0  0
   -9.5447    0.4409    0.0447 N   0  3
   -9.5251    1.1981    1.3032 C   0  0
  -10.6700    2.2134    1.3058 C   0  0
  -11.9495    1.5049    1.1601 N   0  0
  -11.9742    0.7223   -0.0837 C   0  0
  -10.8185   -0.2807   -0.0748 C   0  0
  -13.0794    2.4421    1.2150 C   0  0
    1.0048    1.8381    0.0023 H   0  0
   -0.5450    1.8219   -0.8730 H   0  0
   -0.5280    1.8123    0.9069 H   0  0
    0.0498   -3.9008   -0.0190 H   0  0
    4.8208   -4.1196    2.0909 H   0  0
    5.8889   -4.6908   -0.0499 H   0  0
    4.8111   -4.0800   -2.1748 H   0  0
   -2.4493   -3.8625   -0.0079 H   0  0
   -4.6681    0.9272    0.0277 H   0  0
   -6.0137   -1.3883   -0.8694 H   0  0
   -6.0065   -1.3979    0.9105 H   0  0
   -7.0389    0.8565    0.9269 H   0  0
   -7.0461    0.8662   -0.8531 H   0  0
   -8.5000   -1.1425   -0.8581 H   0  0
   -8.4928   -1.1521    0.9219 H   0  0
   -9.6457    0.5123    2.1418 H   0  0
   -8.5742    1.7227    1.3968 H   0  0
  -10.6647    2.7651    2.2458 H   0  0
  -10.5422    2.9078    0.4753 H   0  0
  -12.9204    0.1862   -0.1573 H   0  0
  -11.8679    1.3921   -0.9370 H   0  0
  -10.8265   -0.8524   -1.0027 H   0  0
  -10.9325   -0.9589    0.7709 H   0  0
  -12.9883    3.1686    0.4076 H   0  0
  -14.0137    1.8916    1.1048 H   0  0
  -13.0745    2.9614    2.1733 H   0  0
   -9.4448    1.0773   -0.7319 H   0  0
  1  2  1  0
  1 32  1  0
  1 33  1  0
  1 34  1  0
  2  7  1  0
  2  3  1  0
  3 20  2  0
  3  4  1  0
  4  5  1  0
  4 17  2  0
  5  6  2  0
  5 35  1  0
  6  7  1  0
  6  9  1  0
  7  8  2  0
  9 14  2  0
  9 10  1  0
 10 11  2  0
 10 16  1  0
 11 12  1  0
 11 36  1  0
 12 13  2  0
 12 37  1  0
 13 14  1  0
 13 38  1  0
 14 15  1  0
 17 18  1  0
 17 39  1  0
 18 19  2  0
 19 20  1  0
 19 21  1  0
 21 22  1  0
 21 40  1  0
 22 23  1  0
 22 41  1  0
 22 42  1  0
 23 24  1  0
 23 43  1  0
 23 44  1  0
 24 25  1  0
 24 45  1  0
 24 46  1  0
 25 30  1  0
 25 26  1  0
 25 58  1  0
 26 27  1  0
 26 47  1  0
 26 48  1  0
 27 28  1  0
 27 49  1  0
 27 50  1  0
 28 29  1  0
 28 31  1  0
 29 30  1  0
 29 51  1  0
 29 52  1  0
 30 53  1  0
 30 54  1  0
 31 55  1  0
 31 56  1  0
 31 57  1  0
M  CHG  1  25   1
M  END
> <Name>
CHEMBL299194

$$$$
CHEMBL51028
  SciTegic01042614003D

 76 80  0  0  0  0            999 V2000
   -0.0178    1.4648    0.0101 C   0  0
    0.0021   -0.0041    0.0020 N   0  0
   -1.3607   -0.5489   -0.0764 C   0  0
   -1.2932   -2.0762   -0.1426 C   0  0
   -0.6107   -2.5886    1.0529 N   0  3
    0.7570   -2.0553    1.1043 C   0  0
    0.7065   -0.5278    1.1808 C   0  0
   -0.5621   -4.0557    0.9977 C   0  0
    0.0360   -4.5955    2.2984 C   0  0
    0.0866   -6.1236    2.2409 C   0  0
    0.6594   -6.6404    3.4863 N   0  0
    0.8060   -8.0028    3.6663 C   0  0
    0.4229   -8.8207    2.6882 N   0  0
    0.5383  -10.1284    2.8022 C   0  0
    1.0794  -10.6528    3.9886 C   0  0
    1.2353  -12.0347    4.1860 C   0  0
    1.7783  -12.4621    5.3871 C   0  0
    2.1514  -11.5085    6.3582 C   0  0
    1.9949  -10.2172    6.1497 N   0  0
    1.4776   -9.7522    5.0111 C   0  0
    1.3249   -8.4391    4.7982 N   0  0
    2.6947  -11.9406    7.5595 N   0  0
    3.0561  -11.0427    8.4973 C   0  0
    2.9061   -9.8541    8.2907 O   0  0
    3.5839  -11.4625    9.6643 N   0  0
    3.9768  -10.4865   10.6837 C   0  0
    2.7594  -10.1200   11.5349 C   0  0
    3.1698   -9.1006   12.5995 C   0  0
    4.2539   -9.7056   13.4938 C   0  0
    5.4713  -10.0721   12.6426 C   0  0
    5.0609  -11.0914   11.5779 C   0  0
    1.9653  -13.9092    5.6499 C   0  0
    0.9461  -14.6496    6.2488 C   0  0
    1.1264  -15.9976    6.4905 C   0  0
    2.3144  -16.6133    6.1402 C   0  0
    3.3290  -15.8844    5.5465 C   0  0
    3.1590  -14.5370    5.2942 C   0  0
    4.4309  -13.6255    4.5425 Cl  0  0
   -0.5455  -13.8787    6.6897 Cl  0  0
    1.0047    1.8421    0.0024 H   0  0
   -0.5450    1.8259   -0.8730 H   0  0
   -0.5280    1.8163    0.9069 H   0  0
   -1.9242   -0.2477    0.8067 H   0  0
   -1.8539   -0.1676   -0.9705 H   0  0
   -2.3035   -2.4830   -0.1865 H   0  0
   -0.7413   -2.3773   -1.0330 H   0  0
    1.2666   -2.4465    1.9848 H   0  0
    1.2983   -2.3564    0.2075 H   0  0
    1.7215   -0.1310    1.2040 H   0  0
    0.1771   -0.2262    2.0846 H   0  0
   -1.5711   -4.4482    0.8715 H   0  0
    0.0569   -4.3674    0.1563 H   0  0
    1.0451   -4.2031    2.4246 H   0  0
   -0.5829   -4.2839    3.1397 H   0  0
   -0.9224   -6.5160    2.1146 H   0  0
    0.7056   -6.4352    1.3995 H   0  0
    0.9356   -6.0264    4.1846 H   0  0
    0.2238  -10.7824    2.0023 H   0  0
    0.9406  -12.7423    3.4252 H   0  0
    2.8144  -12.8890    7.7244 H   0  0
    3.7036  -12.4109    9.8291 H   0  0
    4.3641   -9.5905   10.1987 H   0  0
    1.9871   -9.6890   10.8978 H   0  0
    2.3721  -11.0160   12.0199 H   0  0
    3.5571   -8.2046   12.1145 H   0  0
    2.3025   -8.8395   13.2060 H   0  0
    4.5462   -8.9794   14.2523 H   0  0
    3.8666  -10.6016   13.9788 H   0  0
    5.8585   -9.1761   12.1576 H   0  0
    6.2436  -10.5031   13.2797 H   0  0
    4.6736  -11.9875   12.0629 H   0  0
    5.9282  -11.3525   10.9715 H   0  0
    0.3382  -16.5720    6.9545 H   0  0
    2.4505  -17.6675    6.3313 H   0  0
    4.2545  -16.3708    5.2756 H   0  0
   -1.1152   -2.2999    1.8777 H   0  0
  1  2  1  0
  1 40  1  0
  1 41  1  0
  1 42  1  0
  2  7  1  0
  2  3  1  0
  3  4  1  0
  3 43  1  0
  3 44  1  0
  4  5  1  0
  4 45  1  0
  4 46  1  0
  5  6  1  0
  5  8  1  0
  5 76  1  0
  6  7  1  0
  6 47  1  0
  6 48  1  0
  7 49  1  0
  7 50  1  0
  8  9  1  0
  8 51  1  0
  8 52  1  0
  9 10  1  0
  9 53  1  0
  9 54  1  0
 10 11  1  0
 10 55  1  0
 10 56  1  0
 11 12  1  0
 11 57  1  0
 12 21  2  0
 12 13  1  0
 13 14  2  0
 14 15  1  0
 14 58  1  0
 15 20  2  0
 15 16  1  0
 16 17  2  0
 16 59  1  0
 17 18  1  0
 17 32  1  0
 18 19  2  0
 18 22  1  0
 19 20  1  0
 20 21  1  0
 22 23  1  0
 22 60  1  0
 23 24  2  0
 23 25  1  0
 25 26  1  0
 25 61  1  0
 26 31  1  0
 26 27  1  0
 26 62  1  0
 27 28  1  0
 27 63  1  0
 27 64  1  0
 28 29  1  0
 28 65  1  0
 28 66  1  0
 29 30  1  0
 29 67  1  0
 29 68  1  0
 30 31  1  0
 30 69  1  0
 30 70  1  0
 31 71  1  0
 31 72  1  0
 32 37  2  0
 32 33  1  0
 33 34  2  0
 33 39  1  0
 34 35  1  0
 34 73  1  0
 35 36  2  0
 35 74  1  0
 36 37  1  0
 36 75  1  0
 37 38  1  0
M  CHG  1   5   1
M  END
> <Name>
CHEMBL51028

$$$$
CHEMBL432708
  SciTegic01042614003D

 68 71  0  0  0  0            999 V2000
   -0.0187    1.5258    0.0104 C   0  0
    0.0021   -0.0041    0.0020 C   0  0
    0.7421   -0.5109    1.2415 C   0  0
   -1.4333   -0.5336    0.0129 C   0  0
    0.6878   -0.4765   -1.2033 N   0  0
    1.9715   -0.1323   -1.4270 C   0  0
    2.5604    0.5703   -0.6286 O   0  0
    2.6023   -0.5669   -2.5359 N   0  0
    3.9238   -0.2125   -2.7662 C   0  0
    4.5675   -0.6715   -3.9352 C   0  0
    5.8872   -0.3194   -4.1692 C   0  0
    6.5314    0.4893   -3.2184 C   0  0
    7.8678    0.8958   -3.3728 C   0  0
    8.4057    1.6548   -2.4396 N   0  0
    7.7110    2.0355   -1.3696 C   0  0
    6.4547    1.6836   -1.1730 N   0  0
    5.8199    0.9133   -2.0656 C   0  0
    4.5480    0.5494   -1.8914 N   0  0
    8.3315    2.8317   -0.4257 N   0  0
    9.7260    3.2396   -0.6140 C   0  0
   10.1665    4.1094    0.5651 C   0  0
   11.6228    4.5354    0.3685 C   0  0
   12.0458    5.3704    1.5006 N   0  3
   11.2732    6.6203    1.5032 C   0  0
   11.7156    7.4885    2.6837 C   0  0
   13.1203    7.7393    2.5842 O   0  0
   13.9148    6.5504    2.5539 C   0  0
   13.4765    5.6805    1.3731 C   0  0
    3.8381   -1.5237   -4.9046 C   0  0
    3.1303   -0.9407   -5.9556 C   0  0
    2.4531   -1.7403   -6.8557 C   0  0
    2.4760   -3.1162   -6.7165 C   0  0
    3.1756   -3.7004   -5.6762 C   0  0
    3.8616   -2.9122   -4.7727 C   0  0
    4.7451   -3.6476   -3.4719 Cl  0  0
    3.0999    0.7861   -6.1317 Cl  0  0
    1.0039    1.9031    0.0027 H   0  0
   -0.5459    1.8868   -0.8726 H   0  0
   -0.5289    1.8773    0.9072 H   0  0
    0.2319   -0.1594    2.1383 H   0  0
    0.7568   -1.6008    1.2356 H   0  0
    1.7647   -0.1336    1.2338 H   0  0
   -1.9605   -0.1726   -0.8702 H   0  0
   -1.4185   -1.6235    0.0069 H   0  0
   -1.9435   -0.1821    0.9097 H   0  0
    0.2179   -1.0371   -1.8404 H   0  0
    2.1325   -1.1275   -3.1729 H   0  0
    6.4045   -0.6567   -5.0551 H   0  0
    8.4410    0.5928   -4.2366 H   0  0
    7.8438    3.1205    0.3614 H   0  0
   10.3593    2.3542   -0.6690 H   0  0
    9.8162    3.8089   -1.5391 H   0  0
    9.5332    4.9948    0.6201 H   0  0
   10.0763    3.5401    1.4902 H   0  0
   12.2561    3.6500    0.3135 H   0  0
   11.7131    5.1047   -0.5566 H   0  0
   11.4479    7.1577    0.5711 H   0  0
   10.2117    6.3914    1.5978 H   0  0
   11.1745    8.4344    2.6628 H   0  0
   11.5041    6.9679    3.6178 H   0  0
   14.9653    6.8174    2.4391 H   0  0
   13.7786    5.9977    3.4835 H   0  0
   14.0506    4.7539    1.3712 H   0  0
   13.6503    6.2182    0.4411 H   0  0
    1.9044   -1.2901   -7.6698 H   0  0
    1.9449   -3.7370   -7.4229 H   0  0
    3.1893   -4.7754   -5.5726 H   0  0
   11.8849    4.8735    2.3639 H   0  0
  1  2  1  0
  1 37  1  0
  1 38  1  0
  1 39  1  0
  2  3  1  0
  2  4  1  0
  2  5  1  0
  3 40  1  0
  3 41  1  0
  3 42  1  0
  4 43  1  0
  4 44  1  0
  4 45  1  0
  5  6  1  0
  5 46  1  0
  6  7  2  0
  6  8  1  0
  8  9  1  0
  8 47  1  0
  9 18  2  0
  9 10  1  0
 10 11  2  0
 10 29  1  0
 11 12  1  0
 11 48  1  0
 12 17  2  0
 12 13  1  0
 13 14  2  0
 13 49  1  0
 14 15  1  0
 15 16  2  0
 15 19  1  0
 16 17  1  0
 17 18  1  0
 19 20  1  0
 19 50  1  0
 20 21  1  0
 20 51  1  0
 20 52  1  0
 21 22  1  0
 21 53  1  0
 21 54  1  0
 22 23  1  0
 22 55  1  0
 22 56  1  0
 23 28  1  0
 23 24  1  0
 23 68  1  0
 24 25  1  0
 24 57  1  0
 24 58  1  0
 25 26  1  0
 25 59  1  0
 25 60  1  0
 26 27  1  0
 27 28  1  0
 27 61  1  0
 27 62  1  0
 28 63  1  0
 28 64  1  0
 29 34  2  0
 29 30  1  0
 30 31  2  0
 30 36  1  0
 31 32  1  0
 31 65  1  0
 32 33  2  0
 32 66  1  0
 33 34  1  0
 33 67  1  0
 34 35  1  0
M  CHG  1  23   1
M  END
> <Name>
CHEMBL432708

$$$$
CHEMBL320382
  SciTegic01042614003D

 58 61  0  0  0  0            999 V2000
   -0.0178    1.4608    0.0101 C   0  0
    0.0021   -0.0041    0.0020 N   0  0
   -1.1832   -0.7026    0.0039 C   0  0
   -2.4056   -0.0412    0.0132 C   0  0
   -3.5734   -0.7908    0.0143 C   0  0
   -3.5407   -2.1192    0.0065 N   0  0
   -2.4109   -2.7924   -0.0026 C   0  0
   -1.1855   -2.1147   -0.0043 C   0  0
    0.0397   -2.8227   -0.0135 C   0  0
    1.2142   -2.1207   -0.0144 C   0  0
    1.1810   -0.6564   -0.0127 C   0  0
    2.2233   -0.0259   -0.0189 O   0  0
    2.5110   -2.8371   -0.0239 C   0  0
    3.1266   -3.1880    1.1783 C   0  0
    4.3355   -3.8557    1.1624 C   0  0
    4.9362   -4.1763   -0.0417 C   0  0
    4.3313   -3.8315   -1.2369 C   0  0
    3.1193   -3.1691   -1.2351 C   0  0
    2.3582   -2.7435   -2.7362 Cl  0  0
    2.3749   -2.7855    2.6904 Cl  0  0
   -4.7988   -0.1407    0.0241 N   0  0
   -4.8513    1.3233    0.0332 C   0  0
   -6.3112    1.7812    0.0430 C   0  0
   -6.3660    3.3102    0.0525 C   0  0
   -7.8258    3.7681    0.0622 C   0  0
   -7.8785    5.2362    0.0714 N   0  3
   -7.3059    5.7391    1.3277 C   0  0
   -7.3617    7.2688    1.3347 C   0  0
   -8.7179    7.6920    1.1689 O   0  0
   -9.3279    7.2068   -0.0305 C   0  0
   -9.2757    5.6770   -0.0400 C   0  0
    1.0048    1.8381    0.0023 H   0  0
   -0.5450    1.8219   -0.8730 H   0  0
   -0.5280    1.8123    0.9069 H   0  0
   -2.4459    1.0381    0.0200 H   0  0
   -2.4284   -3.8722   -0.0087 H   0  0
    0.0476   -3.9026   -0.0194 H   0  0
    4.8130   -4.1278    2.0921 H   0  0
    5.8819   -4.6979   -0.0486 H   0  0
    4.8055   -4.0847   -2.1736 H   0  0
   -5.6209   -0.6556    0.0249 H   0  0
   -4.3466    1.6994    0.9231 H   0  0
   -4.3551    1.7102   -0.8568 H   0  0
   -6.8159    1.4051   -0.8469 H   0  0
   -6.8074    1.3943    0.9330 H   0  0
   -5.8613    3.6863    0.9424 H   0  0
   -5.8698    3.6971   -0.8375 H   0  0
   -8.3305    3.3920   -0.8276 H   0  0
   -8.3220    3.3812    0.9523 H   0  0
   -7.8788    5.3505    2.1697 H   0  0
   -6.2693    5.4127    1.4113 H   0  0
   -6.9772    7.6428    2.2836 H   0  0
   -6.7561    7.6589    0.5167 H   0  0
  -10.3663    7.5359   -0.0696 H   0  0
   -8.7896    7.5948   -0.8952 H   0  0
   -9.7014    5.3045   -0.9717 H   0  0
   -9.8479    5.2885    0.8025 H   0  0
   -7.3487    5.5967   -0.7080 H   0  0
  1  2  1  0
  1 32  1  0
  1 33  1  0
  1 34  1  0
  2 11  1  0
  2  3  1  0
  3  8  2  0
  3  4  1  0
  4  5  2  0
  4 35  1  0
  5  6  1  0
  5 21  1  0
  6  7  2  0
  7  8  1  0
  7 36  1  0
  8  9  1  0
  9 10  2  0
  9 37  1  0
 10 11  1  0
 10 13  1  0
 11 12  2  0
 13 18  2  0
 13 14  1  0
 14 15  2  0
 14 20  1  0
 15 16  1  0
 15 38  1  0
 16 17  2  0
 16 39  1  0
 17 18  1  0
 17 40  1  0
 18 19  1  0
 21 22  1  0
 21 41  1  0
 22 23  1  0
 22 42  1  0
 22 43  1  0
 23 24  1  0
 23 44  1  0
 23 45  1  0
 24 25  1  0
 24 46  1  0
 24 47  1  0
 25 26  1  0
 25 48  1  0
 25 49  1  0
 26 31  1  0
 26 27  1  0
 26 58  1  0
 27 28  1  0
 27 50  1  0
 27 51  1  0
 28 29  1  0
 28 52  1  0
 28 53  1  0
 29 30  1  0
 30 31  1  0
 30 54  1  0
 30 55  1  0
 31 56  1  0
 31 57  1  0
M  CHG  1  26   1
M  END
> <Name>
CHEMBL320382

$$$$
CHEMBL196797
  SciTegic01042614003D

 67 71  0  0  0  0            999 V2000
   -2.1489   -1.0340    1.7586 C   0  0
   -0.9818   -1.0483    0.8053 C   0  0
   -1.0987   -1.6760   -0.4200 C   0  0
   -0.0297   -1.6912   -1.2965 C   0  0
    1.1652   -1.0747   -0.9478 C   0  0
    1.2857   -0.4440    0.2798 C   0  0
    0.2092   -0.4253    1.1567 C   0  0
    0.3255    0.2146    2.3938 N   0  0
    0.3256   -0.5267    3.5558 C   0  0
   -0.0994    0.0382    4.7874 C   0  0
   -0.5296    1.3590    4.8582 C   0  0
   -0.9413    1.8838    6.0833 C   0  0
   -1.3841    3.2190    6.1908 C   0  0
   -1.7796    3.7007    7.4007 C   0  0
   -1.7582    2.8978    8.5528 C   0  0
   -1.3411    1.6022    8.5107 C   0  0
   -0.9190    1.0453    7.2859 C   0  0
   -0.4860   -0.2794    7.2098 C   0  0
   -0.0758   -0.8029    5.9869 C   0  0
    0.3437   -2.0782    5.8947 N   0  0
    0.7343   -2.5961    4.7611 C   0  0
    0.7396   -1.8651    3.5615 C   0  0
    1.1730   -2.4860    2.3461 C   0  0
    1.5168   -2.9787    1.3819 N   0  0
   -2.1629    3.4264    9.7374 O   0  0
   -2.1217    2.5675   10.8788 C   0  0
   -2.6103    3.3325   12.1104 C   0  0
   -4.0276    3.6797   11.9409 N   0  0
   -4.4110    4.7810   12.8361 C   0  0
   -5.8755    5.1495   12.5848 C   0  0
   -6.6923    3.9905   12.7716 O   0  0
   -6.3469    2.8985   11.9151 C   0  0
   -4.8871    2.5072   12.1596 C   0  0
   -2.2045    4.9884    7.4963 O   0  0
   -2.2062    5.7619    6.2948 C   0  0
    2.2157   -1.0907   -1.8102 O   0  0
    3.3776   -0.3503   -1.4311 C   0  0
   -0.1807   -2.4821   -2.8345 Cl  0  0
   -2.7639   -0.1549    1.5668 H   0  0
   -2.7466   -1.9341    1.6146 H   0  0
   -1.7802   -1.0029    2.7839 H   0  0
   -2.0268   -2.1560   -0.6933 H   0  0
    2.2140    0.0359    0.5526 H   0  0
    0.4062    1.1804    2.4346 H   0  0
   -0.5445    1.9742    3.9707 H   0  0
   -1.4087    3.8551    5.3184 H   0  0
   -1.3333    1.0047    9.4103 H   0  0
   -0.4700   -0.8962    8.0962 H   0  0
    1.0615   -3.6252    4.7446 H   0  0
   -2.7657    1.7049   10.7077 H   0  0
   -1.0983    2.2302   11.0429 H   0  0
   -2.4926    2.7082   12.9962 H   0  0
   -2.0245    4.2441   12.2280 H   0  0
   -4.2873    4.4673   13.8727 H   0  0
   -3.7789    5.6469   12.6394 H   0  0
   -6.1807    5.9266   13.2855 H   0  0
   -5.9891    5.5141   11.5639 H   0  0
   -6.9929    2.0477   12.1315 H   0  0
   -6.4741    3.1977   10.8747 H   0  0
   -4.6025    1.7134   11.4691 H   0  0
   -4.7710    2.1572   13.1854 H   0  0
   -2.5666    6.7677    6.5106 H   0  0
   -1.1930    5.8166    5.8965 H   0  0
   -2.8602    5.2914    5.5606 H   0  0
    4.1063   -0.3777   -2.2413 H   0  0
    3.0992    0.6837   -1.2276 H   0  0
    3.8137   -0.7922   -0.5351 H   0  0
  1  2  1  0
  1 39  1  0
  1 40  1  0
  1 41  1  0
  2  7  2  0
  2  3  1  0
  3  4  2  0
  3 42  1  0
  4  5  1  0
  4 38  1  0
  5  6  2  0
  5 36  1  0
  6  7  1  0
  6 43  1  0
  7  8  1  0
  8  9  1  0
  8 44  1  0
  9 22  2  0
  9 10  1  0
 10 19  2  0
 10 11  1  0
 11 12  2  0
 11 45  1  0
 12 17  1  0
 12 13  1  0
 13 14  2  0
 13 46  1  0
 14 15  1  0
 14 34  1  0
 15 16  2  0
 15 25  1  0
 16 17  1  0
 16 47  1  0
 17 18  2  0
 18 19  1  0
 18 48  1  0
 19 20  1  0
 20 21  2  0
 21 22  1  0
 21 49  1  0
 22 23  1  0
 23 24  3  0
 25 26  1  0
 26 27  1  0
 26 50  1  0
 26 51  1  0
 27 28  1  0
 27 52  1  0
 27 53  1  0
 28 33  1  0
 28 29  1  0
 29 30  1  0
 29 54  1  0
 29 55  1  0
 30 31  1  0
 30 56  1  0
 30 57  1  0
 31 32  1  0
 32 33  1  0
 32 58  1  0
 32 59  1  0
 33 60  1  0
 33 61  1  0
 34 35  1  0
 35 62  1  0
 35 63  1  0
 35 64  1  0
 36 37  1  0
 37 65  1  0
 37 66  1  0
 37 67  1  0
M  END
> <Name>
CHEMBL196797

$$$$
CHEMBL213745
  SciTegic01042614003D

 57 62  0  0  0  0            999 V2000
   -0.1430    1.1403   -0.0615 C   0  0
    0.9943    1.8847   -0.3195 C   0  0
    2.2348    1.2787   -0.3201 C   0  0
    2.3400   -0.0902   -0.0588 C   0  0
    1.1867   -0.8354    0.2014 C   0  0
   -0.0469   -0.2153    0.1981 C   0  0
    1.3048   -2.5365    0.5267 Cl  0  0
    3.6629   -0.7459   -0.0582 C   0  0
    4.3269   -0.8971   -1.2224 C   0  0
    5.6421   -1.5501   -1.2144 C   0  0
    6.3800   -1.7371   -2.3800 C   0  0
    7.5600   -2.3351   -2.2911 N   0  0
    8.0331   -2.7479   -1.1239 C   0  0
    7.3626   -2.5900    0.0105 N   0  0
    6.1759   -2.0016    0.0086 C   0  0
    5.4562   -1.8235    1.1776 N   0  0
    4.2086   -1.1954    1.1560 N   0  0
    3.6613   -1.1058    2.3882 C   0  0
    2.5842   -0.6094    2.6431 O   0  0
    4.5997   -1.7196    3.3970 C   0  0
    5.7950   -2.2026    2.5590 C   0  0
    9.2714   -3.3668   -1.0867 N   0  0
   10.0517   -3.4423   -2.2475 C   0  0
   10.0930   -2.3687   -3.1274 C   0  0
   10.8622   -2.4430   -4.2716 C   0  0
   11.5949   -3.5913   -4.5423 C   0  0
   11.5540   -4.6647   -3.6621 C   0  0
   10.7886   -4.5885   -2.5155 C   0  0
   12.3742   -3.6669   -5.7023 N   0  0
   13.0630   -4.9135   -6.0723 C   0  0
   12.7274   -5.2361   -7.5329 C   0  0
   13.0062   -4.0921   -8.3436 O   0  0
   12.2192   -2.9422   -8.0237 C   0  0
   12.5241   -2.5038   -6.5913 C   0  0
    3.6603    2.2145   -0.6453 Cl  0  0
   -1.1103    1.6206   -0.0582 H   0  0
    0.9114    2.9424   -0.5212 H   0  0
   -0.9391   -0.7899    0.3990 H   0  0
    3.8971   -0.5431   -2.1478 H   0  0
    6.0000   -1.4034   -3.3342 H   0  0
    4.9136   -0.9747    4.1281 H   0  0
    4.1249   -2.5659    3.8935 H   0  0
    5.9153   -3.2831    2.6382 H   0  0
    6.7033   -1.6934    2.8811 H   0  0
    9.5984   -3.7480   -0.2569 H   0  0
    9.5232   -1.4757   -2.9168 H   0  0
   10.8938   -1.6084   -4.9562 H   0  0
   12.1234   -5.5579   -3.8728 H   0  0
   10.7596   -5.4218   -1.8291 H   0  0
   14.1397   -4.7844   -5.9628 H   0  0
   12.7229   -5.7255   -5.4295 H   0  0
   13.3343   -6.0769   -7.8687 H   0  0
   11.6712   -5.4924   -7.6157 H   0  0
   12.4604   -2.1328   -8.7127 H   0  0
   11.1611   -3.1902   -8.1084 H   0  0
   11.8274   -1.7208   -6.2920 H   0  0
   13.5457   -2.1280   -6.5350 H   0  0
  1  6  2  0
  1  2  1  0
  1 36  1  0
  2  3  2  0
  2 37  1  0
  3  4  1  0
  3 35  1  0
  4  5  2  0
  4  8  1  0
  5  6  1  0
  5  7  1  0
  6 38  1  0
  8 17  1  0
  8  9  2  0
  9 10  1  0
  9 39  1  0
 10 15  2  0
 10 11  1  0
 11 12  2  0
 11 40  1  0
 12 13  1  0
 13 14  2  0
 13 22  1  0
 14 15  1  0
 15 16  1  0
 16 21  1  0
 16 17  1  0
 17 18  1  0
 18 19  2  0
 18 20  1  0
 20 21  1  0
 20 41  1  0
 20 42  1  0
 21 43  1  0
 21 44  1  0
 22 23  1  0
 22 45  1  0
 23 28  2  0
 23 24  1  0
 24 25  2  0
 24 46  1  0
 25 26  1  0
 25 47  1  0
 26 27  2  0
 26 29  1  0
 27 28  1  0
 27 48  1  0
 28 49  1  0
 29 34  1  0
 29 30  1  0
 30 31  1  0
 30 50  1  0
 30 51  1  0
 31 32  1  0
 31 52  1  0
 31 53  1  0
 32 33  1  0
 33 34  1  0
 33 54  1  0
 33 55  1  0
 34 56  1  0
 34 57  1  0
M  END
> <Name>
CHEMBL213745

$$$$
CHEMBL415625
  SciTegic01042614003D

 62 66  0  0  0  0            999 V2000
    0.7033    3.0302    1.5698 C   0  0
    0.5180    1.5819    1.4079 N   0  0
   -0.9093    1.2318    1.3939 C   0  0
   -1.0600   -0.2736    1.1642 C   0  0
   -0.3696   -1.0040    2.2354 N   0  3
    1.0590   -0.6628    2.2210 C   0  0
    1.2273    0.8394    2.4594 C   0  0
   -0.5298   -2.4489    2.0245 C   0  0
    0.0720   -3.1960    3.1867 C   0  0
   -0.5795   -3.5591    4.3095 C   0  0
    0.3498   -4.2316    5.1268 C   0  0
    1.5304   -4.2423    4.4508 C   0  0
    1.3446   -3.6153    3.2731 O   0  0
    2.7941   -4.8423    4.9233 C   0  0
    2.8382   -5.4783    6.1759 C   0  0
    3.9916   -6.0367    6.6285 C   0  0
    5.1539   -5.9816    5.8430 C   0  0
    5.1257   -5.3441    4.5782 C   0  0
    3.9263   -4.7787    4.1249 C   0  0
    6.2335   -5.2898    3.8240 N   0  0
    7.3666   -5.8137    4.2169 C   0  0
    7.4860   -6.4642    5.4550 C   0  0
    6.3643   -6.5562    6.2941 C   0  0
    6.4406   -7.1872    7.5191 N   0  0
    7.6768   -7.3283    8.1572 C   0  0
    8.2357   -8.5888    8.3188 C   0  0
    9.4608   -8.7251    8.9516 C   0  0
   10.1272   -7.6015    9.4228 C   0  0
    9.5695   -6.3465    9.2617 C   0  0
    8.3502   -6.2060    8.6254 C   0  0
    7.6564   -4.6283    8.4179 Cl  0  0
   11.6621   -7.7728   10.2155 Cl  0  0
   10.0100   -9.9583    9.1115 O   0  0
    9.3277  -11.0563    8.5024 C   0  0
    8.7390   -7.0287    5.8578 C   0  0
    9.7329   -7.4764    6.1773 N   0  0
    1.7651    3.2695    1.5110 H   0  0
    0.1682    3.5556    0.7788 H   0  0
    0.3141    3.3401    2.5396 H   0  0
   -1.3591    1.5007    2.3496 H   0  0
   -1.4089    1.7740    0.5910 H   0  0
   -2.1175   -0.5376    1.1677 H   0  0
   -0.6222   -0.5399    0.2022 H   0  0
    1.5725   -1.2153    3.0079 H   0  0
    1.4860   -0.9271    1.2536 H   0  0
    2.2866    1.0953    2.4340 H   0  0
    0.8127    1.1019    3.4328 H   0  0
   -1.5901   -2.6895    1.9477 H   0  0
   -0.0235   -2.7400    1.1041 H   0  0
   -1.6178   -3.3700    4.5390 H   0  0
    0.1616   -4.6562    6.1019 H   0  0
    1.9472   -5.5234    6.7845 H   0  0
    4.0141   -6.5225    7.5928 H   0  0
    3.8849   -4.2928    3.1613 H   0  0
    8.2308   -5.7440    3.5728 H   0  0
    5.6366   -7.5330    7.9374 H   0  0
    7.7162   -9.4618    7.9522 H   0  0
   10.0895   -5.4742    9.6293 H   0  0
    9.9137  -11.9660    8.6334 H   0  0
    8.3515  -11.1824    8.9707 H   0  0
    9.1974  -10.8580    7.4385 H   0  0
   -0.7672   -0.7485    3.1269 H   0  0
  1  2  1  0
  1 37  1  0
  1 38  1  0
  1 39  1  0
  2  7  1  0
  2  3  1  0
  3  4  1  0
  3 40  1  0
  3 41  1  0
  4  5  1  0
  4 42  1  0
  4 43  1  0
  5  6  1  0
  5  8  1  0
  5 62  1  0
  6  7  1  0
  6 44  1  0
  6 45  1  0
  7 46  1  0
  7 47  1  0
  8  9  1  0
  8 48  1  0
  8 49  1  0
  9 13  1  0
  9 10  2  0
 10 11  1  0
 10 50  1  0
 11 12  2  0
 11 51  1  0
 12 13  1  0
 12 14  1  0
 14 19  2  0
 14 15  1  0
 15 16  2  0
 15 52  1  0
 16 17  1  0
 16 53  1  0
 17 23  2  0
 17 18  1  0
 18 19  1  0
 18 20  2  0
 19 54  1  0
 20 21  1  0
 21 22  2  0
 21 55  1  0
 22 23  1  0
 22 35  1  0
 23 24  1  0
 24 25  1  0
 24 56  1  0
 25 30  2  0
 25 26  1  0
 26 27  2  0
 26 57  1  0
 27 28  1  0
 27 33  1  0
 28 29  2  0
 28 32  1  0
 29 30  1  0
 29 58  1  0
 30 31  1  0
 33 34  1  0
 34 59  1  0
 34 60  1  0
 34 61  1  0
 35 36  3  0
M  CHG  1   5   1
M  END
> <Name>
CHEMBL415625

$$$$
CHEMBL431942
  SciTegic01042614003D

 75 78  0  0  0  0            999 V2000
   -0.0187    1.5258    0.0104 C   0  0
    0.0021   -0.0041    0.0020 C   0  0
    0.7421   -0.5109    1.2415 C   0  0
   -1.4333   -0.5336    0.0129 C   0  0
    0.6878   -0.4765   -1.2033 N   0  0
    1.9715   -0.1323   -1.4270 C   0  0
    2.5604    0.5703   -0.6286 O   0  0
    2.6023   -0.5669   -2.5359 N   0  0
    3.9238   -0.2125   -2.7662 C   0  0
    4.5675   -0.6715   -3.9352 C   0  0
    5.8872   -0.3194   -4.1692 C   0  0
    6.5314    0.4893   -3.2184 C   0  0
    7.8678    0.8958   -3.3728 C   0  0
    8.4057    1.6548   -2.4396 N   0  0
    7.7110    2.0355   -1.3696 C   0  0
    6.4547    1.6836   -1.1730 N   0  0
    5.8199    0.9133   -2.0656 C   0  0
    4.5480    0.5494   -1.8914 N   0  0
    8.3315    2.8317   -0.4257 N   0  0
    9.7260    3.2396   -0.6140 C   0  0
   10.1665    4.1094    0.5651 C   0  0
   11.6228    4.5354    0.3685 C   0  0
   12.0634    5.4051    1.5476 C   0  0
   13.4616    5.8141    1.3589 N   0  3
   14.3283    4.6291    1.4028 C   0  0
   15.7830    5.0525    1.1874 C   0  0
   16.1733    6.0053    2.2362 N   0  0
   15.2983    7.1861    2.2206 C   0  0
   13.8477    6.7451    2.4274 C   0  0
   17.5833    6.3930    2.0969 C   0  0
    3.8381   -1.5237   -4.9046 C   0  0
    3.1303   -0.9407   -5.9556 C   0  0
    2.4531   -1.7403   -6.8557 C   0  0
    2.4760   -3.1162   -6.7165 C   0  0
    3.1756   -3.7004   -5.6762 C   0  0
    3.8616   -2.9122   -4.7727 C   0  0
    4.7451   -3.6476   -3.4719 Cl  0  0
    3.0999    0.7861   -6.1317 Cl  0  0
    1.0039    1.9031    0.0027 H   0  0
   -0.5459    1.8868   -0.8726 H   0  0
   -0.5289    1.8773    0.9072 H   0  0
    0.2319   -0.1594    2.1383 H   0  0
    0.7568   -1.6008    1.2356 H   0  0
    1.7647   -0.1336    1.2338 H   0  0
   -1.9605   -0.1726   -0.8702 H   0  0
   -1.4185   -1.6235    0.0069 H   0  0
   -1.9435   -0.1821    0.9097 H   0  0
    0.2179   -1.0371   -1.8404 H   0  0
    2.1325   -1.1275   -3.1729 H   0  0
    6.4045   -0.6567   -5.0551 H   0  0
    8.4410    0.5928   -4.2366 H   0  0
    7.8438    3.1205    0.3614 H   0  0
   10.3593    2.3542   -0.6690 H   0  0
    9.8162    3.8089   -1.5391 H   0  0
    9.5332    4.9948    0.6201 H   0  0
   10.0763    3.5401    1.4902 H   0  0
   12.2561    3.6500    0.3135 H   0  0
   11.7131    5.1047   -0.5566 H   0  0
   11.4301    6.2905    1.6026 H   0  0
   11.9731    4.8358    2.4727 H   0  0
   14.2312    4.1437    2.3739 H   0  0
   14.0324    3.9333    0.6177 H   0  0
   16.4280    4.1751    1.2348 H   0  0
   15.8832    5.5257    0.2106 H   0  0
   15.5897    7.8653    3.0217 H   0  0
   15.3906    7.6944    1.2608 H   0  0
   13.1954    7.6180    2.4020 H   0  0
   13.7530    6.2489    3.3933 H   0  0
   17.7371    6.8611    1.1247 H   0  0
   17.8458    7.0984    2.8854 H   0  0
   18.2134    5.5072    2.1774 H   0  0
    1.9044   -1.2901   -7.6698 H   0  0
    1.9449   -3.7370   -7.4229 H   0  0
    3.1893   -4.7754   -5.5726 H   0  0
   13.5607    6.2698    0.4641 H   0  0
  1  2  1  0
  1 39  1  0
  1 40  1  0
  1 41  1  0
  2  3  1  0
  2  4  1  0
  2  5  1  0
  3 42  1  0
  3 43  1  0
  3 44  1  0
  4 45  1  0
  4 46  1  0
  4 47  1  0
  5  6  1  0
  5 48  1  0
  6  7  2  0
  6  8  1  0
  8  9  1  0
  8 49  1  0
  9 18  2  0
  9 10  1  0
 10 11  2  0
 10 31  1  0
 11 12  1  0
 11 50  1  0
 12 17  2  0
 12 13  1  0
 13 14  2  0
 13 51  1  0
 14 15  1  0
 15 16  2  0
 15 19  1  0
 16 17  1  0
 17 18  1  0
 19 20  1  0
 19 52  1  0
 20 21  1  0
 20 53  1  0
 20 54  1  0
 21 22  1  0
 21 55  1  0
 21 56  1  0
 22 23  1  0
 22 57  1  0
 22 58  1  0
 23 24  1  0
 23 59  1  0
 23 60  1  0
 24 29  1  0
 24 25  1  0
 24 75  1  0
 25 26  1  0
 25 61  1  0
 25 62  1  0
 26 27  1  0
 26 63  1  0
 26 64  1  0
 27 28  1  0
 27 30  1  0
 28 29  1  0
 28 65  1  0
 28 66  1  0
 29 67  1  0
 29 68  1  0
 30 69  1  0
 30 70  1  0
 30 71  1  0
 31 36  2  0
 31 32  1  0
 32 33  2  0
 32 38  1  0
 33 34  1  0
 33 72  1  0
 34 35  2  0
 34 73  1  0
 35 36  1  0
 35 74  1  0
 36 37  1  0
M  CHG  1  24   1
M  END
> <Name>
CHEMBL431942

$$$$
CHEMBL106953
  SciTegic01042614003D

 49 52  0  0  0  0            999 V2000
   -0.0178    1.4608    0.0101 C   0  0
    0.0021   -0.0041    0.0020 N   0  0
   -1.1832   -0.7026    0.0039 C   0  0
   -2.4056   -0.0412    0.0132 C   0  0
   -3.5734   -0.7908    0.0143 C   0  0
   -3.5407   -2.1192    0.0065 N   0  0
   -2.4109   -2.7924   -0.0026 C   0  0
   -1.1855   -2.1147   -0.0043 C   0  0
    0.0397   -2.8227   -0.0135 C   0  0
    1.2142   -2.1207   -0.0144 C   0  0
    1.1810   -0.6564   -0.0127 C   0  0
    2.2233   -0.0259   -0.0189 O   0  0
    2.5110   -2.8371   -0.0239 C   0  0
    3.1266   -3.1880    1.1783 C   0  0
    4.3355   -3.8557    1.1624 C   0  0
    4.9362   -4.1763   -0.0417 C   0  0
    4.3313   -3.8315   -1.2369 C   0  0
    3.1193   -3.1691   -1.2351 C   0  0
    2.3582   -2.7435   -2.7362 Cl  0  0
    2.3749   -2.7855    2.6904 Cl  0  0
   -4.7988   -0.1407    0.0241 N   0  0
   -4.8513    1.3233    0.0332 C   0  0
   -6.3112    1.7812    0.0430 C   0  0
   -6.3660    3.3102    0.0525 C   0  0
   -7.7638    3.7487    0.0618 N   0  0
   -8.5458    3.9927   -1.0348 C   0  0
   -9.7538    4.3713   -0.5754 C   0  0
   -9.7106    4.3588    0.7651 N   0  3
   -8.5232    3.9819    1.1539 C   0  0
    1.0048    1.8381    0.0023 H   0  0
   -0.5450    1.8219   -0.8730 H   0  0
   -0.5280    1.8123    0.9069 H   0  0
   -2.4459    1.0381    0.0200 H   0  0
   -2.4284   -3.8722   -0.0087 H   0  0
    0.0476   -3.9026   -0.0194 H   0  0
    4.8130   -4.1278    2.0921 H   0  0
    5.8819   -4.6979   -0.0486 H   0  0
    4.8055   -4.0847   -2.1736 H   0  0
   -5.6209   -0.6556    0.0249 H   0  0
   -4.3466    1.6994    0.9231 H   0  0
   -4.3551    1.7102   -0.8568 H   0  0
   -6.8159    1.4051   -0.8469 H   0  0
   -6.8074    1.3943    0.9330 H   0  0
   -5.8613    3.6863    0.9424 H   0  0
   -5.8698    3.6971   -0.8375 H   0  0
   -8.2507    3.8999   -2.0695 H   0  0
  -10.6077    4.6382   -1.1803 H   0  0
   -8.2005    3.8766    2.1792 H   0  0
  -10.4468    4.5897    1.3529 H   0  0
  1  2  1  0
  1 30  1  0
  1 31  1  0
  1 32  1  0
  2 11  1  0
  2  3  1  0
  3  8  2  0
  3  4  1  0
  4  5  2  0
  4 33  1  0
  5  6  1  0
  5 21  1  0
  6  7  2  0
  7  8  1  0
  7 34  1  0
  8  9  1  0
  9 10  2  0
  9 35  1  0
 10 11  1  0
 10 13  1  0
 11 12  2  0
 13 18  2  0
 13 14  1  0
 14 15  2  0
 14 20  1  0
 15 16  1  0
 15 36  1  0
 16 17  2  0
 16 37  1  0
 17 18  1  0
 17 38  1  0
 18 19  1  0
 21 22  1  0
 21 39  1  0
 22 23  1  0
 22 40  1  0
 22 41  1  0
 23 24  1  0
 23 42  1  0
 23 43  1  0
 24 25  1  0
 24 44  1  0
 24 45  1  0
 25 29  1  0
 25 26  1  0
 26 27  2  0
 26 46  1  0
 27 28  1  0
 27 47  1  0
 28 29  2  0
 28 49  1  0
 29 48  1  0
M  CHG  1  28   1
M  END
> <Name>
CHEMBL106953

$$$$
CHEMBL353070
  SciTegic01042614003D

 59 63  0  0  0  0            999 V2000
   -0.0255    1.4808    0.3379 C   0  0
   -0.0097    0.0917    0.6729 O   0  0
   -1.2126   -0.5367    0.7573 C   0  0
   -2.3598    0.1657    0.5189 C   0  0
   -3.5987   -0.4802    0.6055 C   0  0
   -3.6563   -1.8561    0.9392 C   0  0
   -2.4681   -2.5565    1.1796 C   0  0
   -1.2614   -1.8993    1.0824 C   0  0
   -0.1066   -2.5778    1.3092 O   0  0
   -0.2221   -3.9641    1.6363 C   0  0
    1.1724   -4.5544    1.8552 C   0  0
    1.0487   -6.0386    2.2053 C   0  0
    2.3876   -6.6054    2.4155 N   0  0
    3.1595   -6.6111    1.1643 C   0  0
    4.5646   -7.1527    1.4405 C   0  0
    4.4623   -8.4564    2.0195 O   0  0
    3.7172   -8.4874    3.2399 C   0  0
    2.3036   -7.9594    2.9820 C   0  0
   -4.8570   -2.4515    1.0152 N   0  0
   -5.9534   -1.7694    0.7842 C   0  0
   -5.9484   -0.4839    0.4691 N   0  0
   -4.8165    0.2007    0.3678 C   0  0
   -4.8263    1.5411    0.0393 N   0  0
   -6.0407    2.2289   -0.0571 C   0  0
   -7.1800    1.7157    0.5384 C   0  0
   -8.3887    2.3907    0.4481 C   0  0
   -8.4754    3.5740   -0.2298 C   0  0
   -7.3389    4.1129   -0.8392 C   0  0
   -6.1087    3.4400   -0.7498 C   0  0
   -5.1794    4.1975   -1.4290 N   0  0
   -4.2423    3.9693   -1.5324 H   0  0
   -5.7766    5.3205   -1.9361 C   0  0
   -7.0824    5.3248   -1.6217 C   0  0
   -8.2426    6.5441   -2.0469 Cl  0  0
    0.9966    1.8580    0.3039 H   0  0
   -0.4946    1.6142   -0.6369 H   0  0
   -0.5905    2.0299    1.0912 H   0  0
   -2.3112    1.2144    0.2652 H   0  0
   -2.4971   -3.6054    1.4352 H   0  0
   -0.8105   -4.0747    2.5472 H   0  0
   -0.7153   -4.4903    0.8190 H   0  0
    1.7608   -4.4438    0.9443 H   0  0
    1.6655   -4.0281    2.6724 H   0  0
    0.4603   -6.1492    3.1162 H   0  0
    0.5555   -6.5649    1.3881 H   0  0
    2.6616   -7.2471    0.4324 H   0  0
    3.2309   -5.5952    0.7760 H   0  0
    5.1219   -7.2125    0.5056 H   0  0
    5.0820   -6.4871    2.1314 H   0  0
    3.6617   -9.5124    3.6064 H   0  0
    4.2100   -7.8606    3.9832 H   0  0
    1.7501   -7.9275    3.9205 H   0  0
    1.7920   -8.6169    2.2791 H   0  0
   -6.9027   -2.2797    0.8539 H   0  0
   -3.9911    2.0064   -0.1248 H   0  0
   -7.1277    0.7814    1.0777 H   0  0
   -9.2690    1.9771    0.9175 H   0  0
   -9.4209    4.0919   -0.2948 H   0  0
   -5.2743    6.0844   -2.5110 H   0  0
  1  2  1  0
  1 35  1  0
  1 36  1  0
  1 37  1  0
  2  3  1  0
  3  8  2  0
  3  4  1  0
  4  5  2  0
  4 38  1  0
  5 22  1  0
  5  6  1  0
  6  7  2  0
  6 19  1  0
  7  8  1  0
  7 39  1  0
  8  9  1  0
  9 10  1  0
 10 11  1  0
 10 40  1  0
 10 41  1  0
 11 12  1  0
 11 42  1  0
 11 43  1  0
 12 13  1  0
 12 44  1  0
 12 45  1  0
 13 18  1  0
 13 14  1  0
 14 15  1  0
 14 46  1  0
 14 47  1  0
 15 16  1  0
 15 48  1  0
 15 49  1  0
 16 17  1  0
 17 18  1  0
 17 50  1  0
 17 51  1  0
 18 52  1  0
 18 53  1  0
 19 20  2  0
 20 21  1  0
 20 54  1  0
 21 22  2  0
 22 23  1  0
 23 24  1  0
 23 55  1  0
 24 29  2  0
 24 25  1  0
 25 26  2  0
 25 56  1  0
 26 27  1  0
 26 57  1  0
 27 28  2  0
 27 58  1  0
 28 33  1  0
 28 29  1  0
 29 30  1  0
 30 31  1  0
 30 32  1  0
 32 33  2  0
 32 59  1  0
 33 34  1  0
M  END
> <Name>
CHEMBL353070

$$$$
CHEMBL106772
  SciTegic01042614003D

 54 58  0  0  0  0            999 V2000
   -0.0332    1.3909    0.6137 C   0  0
   -0.0055   -0.0383    0.2928 N   0  0
   -1.1828   -0.7081    0.0742 C   0  0
   -1.1737   -2.0853   -0.2365 C   0  0
    0.0505   -2.7863   -0.3250 C   0  0
    1.2203   -2.1096   -0.1052 C   0  0
    1.1757   -0.6801    0.2099 C   0  0
    2.2120   -0.0695    0.4024 O   0  0
    2.5198   -2.8161   -0.1902 C   0  0
    3.0642   -3.4205    0.9436 C   0  0
    4.2758   -4.0779    0.8575 C   0  0
    4.9495   -4.1377   -0.3491 C   0  0
    4.4153   -3.5407   -1.4768 C   0  0
    3.2018   -2.8851   -1.4056 C   0  0
    2.5299   -2.1422   -2.8235 Cl  0  0
    2.2209   -3.3456    2.4592 Cl  0  0
   -2.3995   -2.7325   -0.4533 C   0  0
   -3.5114   -2.0280   -0.3581 N   0  0
   -3.4819   -0.7327   -0.0637 C   0  0
   -2.3501   -0.0788    0.1492 N   0  0
   -4.6753   -0.0428    0.0231 N   0  0
   -5.8911   -0.7305   -0.0815 C   0  0
   -6.0348   -1.9801    0.5071 C   0  0
   -7.2332   -2.6581    0.4040 C   0  0
   -8.2950   -2.0901   -0.2879 C   0  0
   -8.1513   -0.8403   -0.8761 C   0  0
   -6.9545   -0.1603   -0.7689 C   0  0
   -9.5094   -2.7774   -0.3928 N   0  0
   -9.7248   -4.0476    0.3183 C   0  0
  -11.0457   -3.9514    1.0903 C   0  0
  -12.0837   -3.5395    0.1978 O   0  0
  -11.8867   -2.2424   -0.3702 C   0  0
  -10.6109   -2.2482   -1.2126 C   0  0
    0.9861    1.7527    0.7487 H   0  0
   -0.5077    1.9371   -0.2015 H   0  0
   -0.5986    1.5460    1.5326 H   0  0
    0.0629   -3.8399   -0.5620 H   0  0
    4.6983   -4.5460    1.7343 H   0  0
    5.8970   -4.6524   -0.4109 H   0  0
    4.9463   -3.5910   -2.4159 H   0  0
   -2.4324   -3.7850   -0.6934 H   0  0
   -4.6715    0.9180    0.1565 H   0  0
   -5.2091   -2.4218    1.0451 H   0  0
   -7.3447   -3.6302    0.8611 H   0  0
   -8.9770   -0.3985   -1.4142 H   0  0
   -6.8440    0.8133   -1.2231 H   0  0
   -9.7781   -4.8659   -0.3998 H   0  0
   -8.9045   -4.2222    1.0145 H   0  0
  -11.2930   -4.9259    1.5114 H   0  0
  -10.9455   -3.2217    1.8937 H   0  0
  -12.7391   -1.9874   -0.9999 H   0  0
  -11.7896   -1.5065    0.4279 H   0  0
  -10.3771   -1.2319   -1.5296 H   0  0
  -10.7549   -2.8822   -2.0874 H   0  0
  1  2  1  0
  1 34  1  0
  1 35  1  0
  1 36  1  0
  2  7  1  0
  2  3  1  0
  3 20  2  0
  3  4  1  0
  4  5  1  0
  4 17  2  0
  5  6  2  0
  5 37  1  0
  6  7  1  0
  6  9  1  0
  7  8  2  0
  9 14  2  0
  9 10  1  0
 10 11  2  0
 10 16  1  0
 11 12  1  0
 11 38  1  0
 12 13  2  0
 12 39  1  0
 13 14  1  0
 13 40  1  0
 14 15  1  0
 17 18  1  0
 17 41  1  0
 18 19  2  0
 19 20  1  0
 19 21  1  0
 21 22  1  0
 21 42  1  0
 22 27  2  0
 22 23  1  0
 23 24  2  0
 23 43  1  0
 24 25  1  0
 24 44  1  0
 25 26  2  0
 25 28  1  0
 26 27  1  0
 26 45  1  0
 27 46  1  0
 28 33  1  0
 28 29  1  0
 29 30  1  0
 29 47  1  0
 29 48  1  0
 30 31  1  0
 30 49  1  0
 30 50  1  0
 31 32  1  0
 32 33  1  0
 32 51  1  0
 32 52  1  0
 33 53  1  0
 33 54  1  0
M  END
> <Name>
CHEMBL106772

$$$$
CHEMBL106295
  SciTegic01042614003D

 54 57  0  0  0  0            999 V2000
   -0.0178    1.4608    0.0101 C   0  0
    0.0021   -0.0041    0.0020 N   0  0
   -1.1832   -0.7026    0.0039 C   0  0
   -2.4056   -0.0412    0.0132 C   0  0
   -3.5734   -0.7908    0.0143 C   0  0
   -3.5407   -2.1192    0.0065 N   0  0
   -2.4109   -2.7924   -0.0026 C   0  0
   -1.1855   -2.1147   -0.0043 C   0  0
    0.0397   -2.8227   -0.0135 C   0  0
    1.2142   -2.1207   -0.0144 C   0  0
    1.1810   -0.6564   -0.0127 C   0  0
    2.2233   -0.0259   -0.0189 O   0  0
    2.5110   -2.8371   -0.0239 C   0  0
    3.1266   -3.1880    1.1783 C   0  0
    4.3355   -3.8557    1.1624 C   0  0
    4.9362   -4.1763   -0.0417 C   0  0
    4.3313   -3.8315   -1.2369 C   0  0
    3.1193   -3.1691   -1.2351 C   0  0
    2.3582   -2.7435   -2.7362 Cl  0  0
    2.3749   -2.7855    2.6904 Cl  0  0
   -4.7988   -0.1407    0.0241 N   0  0
   -4.8513    1.3233    0.0332 C   0  0
   -6.3112    1.7812    0.0430 C   0  0
   -6.3660    3.3102    0.0525 C   0  0
   -7.7676    3.7499    0.0619 N   0  0
   -8.4410    3.3902   -1.1945 C   0  0
   -9.9107    3.8123   -1.1185 C   0  0
   -9.9853    5.2144   -0.8464 O   0  0
   -9.3400    5.5998    0.3703 C   0  0
   -7.8646    5.1958    0.3094 C   0  0
    1.0048    1.8381    0.0023 H   0  0
   -0.5450    1.8219   -0.8730 H   0  0
   -0.5280    1.8123    0.9069 H   0  0
   -2.4459    1.0381    0.0200 H   0  0
   -2.4284   -3.8722   -0.0087 H   0  0
    0.0476   -3.9026   -0.0194 H   0  0
    4.8130   -4.1278    2.0921 H   0  0
    5.8819   -4.6979   -0.0486 H   0  0
    4.8055   -4.0847   -2.1736 H   0  0
   -5.6209   -0.6556    0.0249 H   0  0
   -4.3466    1.6994    0.9231 H   0  0
   -4.3551    1.7102   -0.8568 H   0  0
   -6.8159    1.4051   -0.8469 H   0  0
   -6.8074    1.3943    0.9330 H   0  0
   -5.8613    3.6863    0.9424 H   0  0
   -5.8698    3.6971   -0.8375 H   0  0
   -7.9576    3.9027   -2.0262 H   0  0
   -8.3792    2.3124   -1.3450 H   0  0
  -10.4001    3.5995   -2.0689 H   0  0
  -10.4073    3.2598   -0.3209 H   0  0
   -9.4167    6.6797    0.4967 H   0  0
   -9.8200    5.0993    1.2113 H   0  0
   -7.3820    5.4360    1.2568 H   0  0
   -7.3720    5.7372   -0.4983 H   0  0
  1  2  1  0
  1 31  1  0
  1 32  1  0
  1 33  1  0
  2 11  1  0
  2  3  1  0
  3  8  2  0
  3  4  1  0
  4  5  2  0
  4 34  1  0
  5  6  1  0
  5 21  1  0
  6  7  2  0
  7  8  1  0
  7 35  1  0
  8  9  1  0
  9 10  2  0
  9 36  1  0
 10 11  1  0
 10 13  1  0
 11 12  2  0
 13 18  2  0
 13 14  1  0
 14 15  2  0
 14 20  1  0
 15 16  1  0
 15 37  1  0
 16 17  2  0
 16 38  1  0
 17 18  1  0
 17 39  1  0
 18 19  1  0
 21 22  1  0
 21 40  1  0
 22 23  1  0
 22 41  1  0
 22 42  1  0
 23 24  1  0
 23 43  1  0
 23 44  1  0
 24 25  1  0
 24 45  1  0
 24 46  1  0
 25 30  1  0
 25 26  1  0
 26 27  1  0
 26 47  1  0
 26 48  1  0
 27 28  1  0
 27 49  1  0
 27 50  1  0
 28 29  1  0
 29 30  1  0
 29 51  1  0
 29 52  1  0
 30 53  1  0
 30 54  1  0
M  END
> <Name>
CHEMBL106295

$$$$
CHEMBL61967
  SciTegic01042614003D

 57 61  0  0  0  0            999 V2000
    2.7619   -4.3124   -2.0871 C   0  0
    1.3433   -4.1449   -2.0457 O   0  0
    0.8300   -3.0663   -2.6946 C   0  0
    1.6600   -2.2503   -3.4470 C   0  0
    1.1333   -1.1497   -4.1086 C   0  0
   -0.2252   -0.8688   -4.0147 C   0  0
   -1.0497   -1.6847   -3.2635 C   0  0
   -0.5269   -2.7851   -2.6085 C   0  0
   -1.5673   -3.8120   -1.6722 Cl  0  0
   -0.8857    0.5077   -4.8409 Cl  0  0
    1.9680   -0.3241   -4.8682 N   0  0
    2.1877    0.9812   -4.4782 C   0  0
    2.5806    1.9666   -5.4135 C   0  0
    2.7591    1.6463   -6.7682 C   0  0
    3.1369    2.6100   -7.6500 C   0  0
    3.3521    3.9283   -7.2199 C   0  0
    3.1837    4.2717   -5.8895 C   0  0
    2.7937    3.2928   -4.9651 C   0  0
    2.6240    3.6044   -3.6715 N   0  0
    2.2610    2.7128   -2.7852 C   0  0
    2.0229    1.3758   -3.1415 C   0  0
    1.6207    0.4235   -2.1505 C   0  0
    1.3017   -0.3319   -1.3643 N   0  0
    3.7641    4.9623   -8.1989 C   0  0
    3.0338    6.1083   -8.3556 C   0  0
    3.9563    6.9646   -9.6212 S   0  0
    5.2464    5.7551   -9.8621 C   0  0
    4.9064    4.7924   -8.9763 C   0  0
    5.7485    3.5505   -8.8362 C   0  0
    6.5810    3.6568   -7.6305 N   0  0
    7.5750    4.7310   -7.7697 C   0  0
    8.3790    4.8461   -6.4719 C   0  0
    8.9835    3.5838   -6.1779 O   0  0
    8.0441    2.5149   -6.0352 C   0  0
    7.2368    2.3762   -7.3285 C   0  0
    3.0762   -4.4966   -3.1144 H   0  0
    3.2454   -3.4088   -1.7157 H   0  0
    3.0462   -5.1594   -1.4628 H   0  0
    2.7149   -2.4704   -3.5182 H   0  0
   -2.1048   -1.4654   -3.1914 H   0  0
    2.3926   -0.6690   -5.6692 H   0  0
    2.5969    0.6348   -7.1102 H   0  0
    3.2729    2.3583   -8.6914 H   0  0
    3.3511    5.2884   -5.5657 H   0  0
    2.1376    3.0136   -1.7552 H   0  0
    2.1326    6.4154   -7.8458 H   0  0
    6.0868    5.7864  -10.5397 H   0  0
    5.0994    2.6788   -8.7539 H   0  0
    6.3890    3.4452   -9.7119 H   0  0
    8.2479    4.4995   -8.5953 H   0  0
    7.0662    5.6744   -7.9675 H   0  0
    9.1549    5.6025   -6.5903 H   0  0
    7.7144    5.1302   -5.6560 H   0  0
    8.5778    1.5853   -5.8378 H   0  0
    7.3698    2.7312   -5.2066 H   0  0
    6.4810    1.6006   -7.2044 H   0  0
    7.9042    2.1071   -8.1472 H   0  0
  1  2  1  0
  1 36  1  0
  1 37  1  0
  1 38  1  0
  2  3  1  0
  3  8  2  0
  3  4  1  0
  4  5  2  0
  4 39  1  0
  5  6  1  0
  5 11  1  0
  6  7  2  0
  6 10  1  0
  7  8  1  0
  7 40  1  0
  8  9  1  0
 11 12  1  0
 11 41  1  0
 12 21  2  0
 12 13  1  0
 13 18  2  0
 13 14  1  0
 14 15  2  0
 14 42  1  0
 15 16  1  0
 15 43  1  0
 16 17  2  0
 16 24  1  0
 17 18  1  0
 17 44  1  0
 18 19  1  0
 19 20  2  0
 20 21  1  0
 20 45  1  0
 21 22  1  0
 22 23  3  0
 24 28  1  0
 24 25  2  0
 25 26  1  0
 25 46  1  0
 26 27  1  0
 27 28  2  0
 27 47  1  0
 28 29  1  0
 29 30  1  0
 29 48  1  0
 29 49  1  0
 30 35  1  0
 30 31  1  0
 31 32  1  0
 31 50  1  0
 31 51  1  0
 32 33  1  0
 32 52  1  0
 32 53  1  0
 33 34  1  0
 34 35  1  0
 34 54  1  0
 34 55  1  0
 35 56  1  0
 35 57  1  0
M  END
> <Name>
CHEMBL61967

$$$$
CHEMBL194969
  SciTegic01042614003D

 69 73  0  0  0  0            999 V2000
   -1.2968    0.1467   -0.6316 C   0  0
   -1.0021   -1.2909   -0.5653 N   0  3  2  0  0  0
   -2.2597   -2.0497   -0.5845 C   0  0
   -1.9525   -3.5479   -0.5344 C   0  0
   -1.1969   -3.8496    0.6896 N   0  0
    0.0534   -3.0782    0.7347 C   0  0
   -0.2704   -1.5838    0.6742 C   0  0
   -0.9311   -5.2899    0.8028 C   0  0
   -0.3701   -5.5973    2.1926 C   0  0
   -1.3642   -5.3176    3.1802 O   0  0
   -1.0246   -5.5387    4.4777 C   0  0
    0.2222   -6.0011    4.7694 C   0  0
    0.5825   -6.2326    6.1132 C   0  0
    1.8522   -6.7058    6.4464 C   0  0
    2.1747   -6.9228    7.7815 C   0  0
    1.1935   -6.6590    8.8375 C   0  0
   -0.0730   -6.1871    8.5060 C   0  0
   -0.4019   -5.9675    7.1670 C   0  0
   -1.6766   -5.4895    6.8014 C   0  0
   -1.9655   -5.2797    5.4869 C   0  0
   -3.1952   -4.8140    5.1440 O   0  0
   -4.1154   -4.5666    6.2088 C   0  0
    1.5279   -6.8759   10.1230 N   0  0
    2.7088   -7.3178   10.4638 C   0  0
    3.7099   -7.5973    9.5188 C   0  0
    3.4581   -7.4033    8.1543 C   0  0
    4.4226   -7.6692    7.2066 N   0  0
    5.4618   -8.5584    7.4972 C   0  0
    6.7672   -8.0950    7.5911 C   0  0
    7.7946   -8.9787    7.8796 C   0  0
    7.5174  -10.3256    8.0742 C   0  0
    6.2170  -10.7862    7.9800 C   0  0
    5.1885   -9.9065    7.6980 C   0  0
    3.5561  -10.4867    7.5874 Cl  0  0
    8.8051  -11.4323    8.4357 Cl  0  0
    9.0737   -8.5276    7.9717 O   0  0
    9.2723   -7.1158    7.8745 C   0  0
    4.9871   -8.0806    9.9499 C   0  0
    6.0003   -8.4640   10.2919 N   0  0
   -0.3637    0.7098   -0.6188 H   0  0
   -1.8399    0.3642   -1.5514 H   0  0
   -1.9057    0.4327    0.2261 H   0  0
   -2.8637   -1.7736    0.2798 H   0  0
   -2.8078   -1.8215   -1.4986 H   0  0
   -2.8859   -4.1107   -0.5335 H   0  0
   -1.3599   -3.8270   -1.4057 H   0  0
    0.5833   -3.2982    1.6614 H   0  0
    0.6790   -3.3495   -0.1157 H   0  0
    0.6563   -1.0102    0.6931 H   0  0
   -0.8846   -1.3101    1.5320 H   0  0
   -1.8585   -5.8432    0.6548 H   0  0
   -0.2063   -5.5863    0.0446 H   0  0
   -0.0900   -6.6493    2.2468 H   0  0
    0.5079   -4.9777    2.3752 H   0  0
    0.9309   -6.1898    3.9767 H   0  0
    2.5795   -6.9024    5.6726 H   0  0
   -0.7987   -5.9912    9.2815 H   0  0
   -2.4187   -5.2871    7.5595 H   0  0
   -4.2949   -5.4919    6.7563 H   0  0
   -3.6974   -3.8201    6.8842 H   0  0
   -5.0559   -4.1991    5.7983 H   0  0
    2.9235   -7.4738   11.5107 H   0  0
    4.3806   -7.2395    6.3380 H   0  0
    6.9816   -7.0475    7.4392 H   0  0
    6.0039  -11.8341    8.1314 H   0  0
    8.9851   -6.7761    6.8794 H   0  0
    8.6602   -6.6105    8.6216 H   0  0
   10.3230   -6.8839    8.0484 H   0  0
   -0.4381   -1.5554   -1.3591 H   0  0
  1  2  1  0
  1 40  1  0
  1 41  1  0
  1 42  1  0
  2  7  1  0
  2  3  1  0
  2 69  1  0
  3  4  1  0
  3 43  1  0
  3 44  1  0
  4  5  1  0
  4 45  1  0
  4 46  1  0
  5  6  1  0
  5  8  1  0
  6  7  1  0
  6 47  1  0
  6 48  1  0
  7 49  1  0
  7 50  1  0
  8  9  1  0
  8 51  1  0
  8 52  1  0
  9 10  1  0
  9 53  1  0
  9 54  1  0
 10 11  1  0
 11 20  2  0
 11 12  1  0
 12 13  2  0
 12 55  1  0
 13 18  1  0
 13 14  1  0
 14 15  2  0
 14 56  1  0
 15 26  1  0
 15 16  1  0
 16 17  2  0
 16 23  1  0
 17 18  1  0
 17 57  1  0
 18 19  2  0
 19 20  1  0
 19 58  1  0
 20 21  1  0
 21 22  1  0
 22 59  1  0
 22 60  1  0
 22 61  1  0
 23 24  2  0
 24 25  1  0
 24 62  1  0
 25 26  2  0
 25 38  1  0
 26 27  1  0
 27 28  1  0
 27 63  1  0
 28 33  2  0
 28 29  1  0
 29 30  2  0
 29 64  1  0
 30 31  1  0
 30 36  1  0
 31 32  2  0
 31 35  1  0
 32 33  1  0
 32 65  1  0
 33 34  1  0
 36 37  1  0
 37 66  1  0
 37 67  1  0
 37 68  1  0
 38 39  3  0
M  CHG  1   2   1
M  END
> <Name>
CHEMBL194969

$$$$
CHEMBL362692
  SciTegic01042614003D

 75 79  0  0  0  0            999 V2000
   -0.3717    1.2406   -1.3588 C   0  0
   -0.4932   -0.0185   -2.0977 N   0  0
   -1.7091   -0.6502   -2.1677 C   0  0
   -1.8434   -1.8640   -2.8761 C   0  0
   -0.7243   -2.4393   -3.5201 C   0  0
    0.4850   -1.8017   -3.4449 C   0  0
    0.5887   -0.5414   -2.7062 C   0  0
    1.6599    0.0347   -2.6381 O   0  0
    1.6770   -2.3793   -4.1087 C   0  0
    2.4992   -3.2718   -3.4198 C   0  0
    3.6086   -3.8070   -4.0446 C   0  0
    3.9057   -3.4596   -5.3502 C   0  0
    3.0950   -2.5750   -6.0386 C   0  0
    1.9791   -2.0375   -5.4275 C   0  0
    0.9591   -0.9331   -6.2954 Cl  0  0
    2.1287   -3.7082   -1.7809 Cl  0  0
   -3.1043   -2.4773   -2.9236 C   0  0
   -4.1139   -1.8948   -2.3043 N   0  0
   -3.9504   -0.7520   -1.6470 C   0  0
   -2.7804   -0.1361   -1.5742 N   0  0
   -5.0413   -0.1852   -1.0161 N   0  0
   -6.2590   -0.8706   -0.9750 C   0  0
   -6.2763   -2.2499   -0.8115 C   0  0
   -7.4810   -2.9239   -0.7714 C   0  0
   -8.6693   -2.2273   -0.8942 C   0  0
   -8.6556   -0.8542   -1.0574 C   0  0
   -7.4546   -0.1732   -1.0918 C   0  0
   -9.9819   -2.9662   -0.8504 C   0  0
  -10.4743   -3.0461    0.5960 C   0  0
  -11.8070   -3.7963    0.6404 C   0  0
  -12.2919   -3.8749    2.0651 C   0  0
  -11.6386   -3.3815    2.9538 O   0  0
  -13.4496   -4.4930    2.3469 O   0  0
  -13.8483   -4.5300    3.7186 C   0  0
  -15.1818   -5.2697    3.8425 C   0  0
  -15.0094   -6.6647    3.4158 N   0  3
  -16.3164   -7.3324    3.3912 C   0  0
  -16.1534   -8.7618    2.8700 C   0  0
  -15.2030   -9.5305    3.7925 C   0  0
  -13.8676   -8.7849    3.8691 C   0  0
  -14.1152   -7.3547    4.3533 C   0  0
    0.6569    1.5969   -1.4146 H   0  0
   -1.0379    1.9843   -1.7961 H   0  0
   -0.6437    1.0776   -0.3160 H   0  0
   -0.8216   -3.3678   -4.0630 H   0  0
    4.2458   -4.4979   -3.5126 H   0  0
    4.7746   -3.8806   -5.8341 H   0  0
    3.3329   -2.3074   -7.0575 H   0  0
   -3.2459   -3.4062   -3.4561 H   0  0
   -4.9621    0.6882   -0.6017 H   0  0
   -5.3486   -2.7947   -0.7163 H   0  0
   -7.4951   -3.9964   -0.6443 H   0  0
   -9.5854   -0.3131   -1.1534 H   0  0
   -7.4448    0.8997   -1.2145 H   0  0
  -10.7174   -2.4365   -1.4558 H   0  0
   -9.8451   -3.9735   -1.2438 H   0  0
   -9.7388   -3.5758    1.2015 H   0  0
  -10.6111   -2.0388    0.9894 H   0  0
  -12.5425   -3.2665    0.0350 H   0  0
  -11.6702   -4.8036    0.2471 H   0  0
  -13.0891   -5.0491    4.3037 H   0  0
  -13.9614   -3.5121    4.0917 H   0  0
  -15.5157   -5.2456    4.8798 H   0  0
  -15.9259   -4.7856    3.2100 H   0  0
  -16.7294   -7.3587    4.3996 H   0  0
  -16.9926   -6.7824    2.7368 H   0  0
  -17.1246   -9.2564    2.8542 H   0  0
  -15.7406   -8.7367    1.8615 H   0  0
  -15.6393   -9.6001    4.7889 H   0  0
  -15.0391  -10.5319    3.3943 H   0  0
  -13.2049   -9.2960    4.5674 H   0  0
  -13.4073   -8.7602    2.8813 H   0  0
  -13.1664   -6.8210    4.4092 H   0  0
  -14.5752   -7.3805    5.3412 H   0  0
  -14.6061   -6.6852    2.4911 H   0  0
  1  2  1  0
  1 42  1  0
  1 43  1  0
  1 44  1  0
  2  7  1  0
  2  3  1  0
  3 20  2  0
  3  4  1  0
  4  5  1  0
  4 17  2  0
  5  6  2  0
  5 45  1  0
  6  7  1  0
  6  9  1  0
  7  8  2  0
  9 14  2  0
  9 10  1  0
 10 11  2  0
 10 16  1  0
 11 12  1  0
 11 46  1  0
 12 13  2  0
 12 47  1  0
 13 14  1  0
 13 48  1  0
 14 15  1  0
 17 18  1  0
 17 49  1  0
 18 19  2  0
 19 20  1  0
 19 21  1  0
 21 22  1  0
 21 50  1  0
 22 27  2  0
 22 23  1  0
 23 24  2  0
 23 51  1  0
 24 25  1  0
 24 52  1  0
 25 26  2  0
 25 28  1  0
 26 27  1  0
 26 53  1  0
 27 54  1  0
 28 29  1  0
 28 55  1  0
 28 56  1  0
 29 30  1  0
 29 57  1  0
 29 58  1  0
 30 31  1  0
 30 59  1  0
 30 60  1  0
 31 32  2  0
 31 33  1  0
 33 34  1  0
 34 35  1  0
 34 61  1  0
 34 62  1  0
 35 36  1  0
 35 63  1  0
 35 64  1  0
 36 41  1  0
 36 37  1  0
 36 75  1  0
 37 38  1  0
 37 65  1  0
 37 66  1  0
 38 39  1  0
 38 67  1  0
 38 68  1  0
 39 40  1  0
 39 69  1  0
 39 70  1  0
 40 41  1  0
 40 71  1  0
 40 72  1  0
 41 73  1  0
 41 74  1  0
M  CHG  1  36   1
M  END
> <Name>
CHEMBL362692

$$$$
CHEMBL432314
  SciTegic01042614003D

 77 80  0  0  0  0            999 V2000
   -0.6609   -3.6334   -4.2495 C   0  0
   -1.6877   -2.5647   -3.8695 C   0  0
   -1.5198   -2.2052   -2.4551 N   0  3
   -0.2090   -1.5703   -2.2636 C   0  0
    0.0363   -1.3472   -0.7699 C   0  0
   -2.5800   -1.2689   -2.0586 C   0  0
   -3.9351   -1.9763   -2.1222 C   0  0
   -3.9611   -3.0423   -1.1708 O   0  0
   -5.0648   -3.8367   -1.1637 C   0  0
   -6.0972   -3.5969   -2.0585 C   0  0
   -7.2183   -4.4032   -2.0519 C   0  0
   -7.3119   -5.4542   -1.1492 C   0  0
   -6.2779   -5.6936   -0.2538 C   0  0
   -5.1550   -4.8899   -0.2654 C   0  0
   -8.4486   -6.2720   -1.1416 N   0  0
   -9.1094   -6.5484   -2.3244 C   0  0
   -8.5792   -6.1182   -3.4674 N   0  0
   -9.1627   -6.3515   -4.6255 C   0  0
  -10.3699   -7.0713   -4.6350 C   0  0
  -11.0521   -7.3607   -5.8281 C   0  0
  -12.2358   -8.0763   -5.7426 C   0  0
  -12.7097   -8.4848   -4.4776 C   0  0
  -12.0518   -8.2007   -3.3722 N   0  0
  -10.9074   -7.5150   -3.3983 C   0  0
  -10.2369   -7.2323   -2.2744 N   0  0
  -13.8952   -9.2010   -4.3963 N   0  0
  -14.3614   -9.5984   -3.1959 C   0  0
  -13.7432   -9.3294   -2.1842 O   0  0
  -15.5130  -10.2942   -3.1169 N   0  0
  -16.0198  -10.7263   -1.8120 C   0  0
  -16.2670   -9.5009   -0.9297 C   0  0
  -17.3313  -11.4909   -2.0020 C   0  0
  -14.9903  -11.6381   -1.1415 C   0  0
  -12.9981   -8.4095   -6.9697 C   0  0
  -13.9706   -7.5325   -7.4499 C   0  0
  -14.6775   -7.8488   -8.5937 C   0  0
  -14.4226   -9.0323   -9.2626 C   0  0
  -13.4599   -9.9065   -8.7913 C   0  0
  -12.7418   -9.5988   -7.6521 C   0  0
  -11.5284  -10.6936   -7.0665 Cl  0  0
  -14.2924   -6.0468   -6.6114 Cl  0  0
   -0.7855   -3.9001   -5.2990 H   0  0
    0.3446   -3.2439   -4.0905 H   0  0
   -0.8103   -4.5175   -3.6297 H   0  0
   -1.5383   -1.6806   -4.4893 H   0  0
   -2.6933   -2.9541   -4.0285 H   0  0
    0.5703   -2.2167   -2.6672 H   0  0
   -0.1904   -0.6116   -2.7819 H   0  0
   -0.7731   -0.7468   -0.3545 H   0  0
    0.0731   -2.3099   -0.2600 H   0  0
    0.9835   -0.8261   -0.6311 H   0  0
   -2.3978   -0.9235   -1.0410 H   0  0
   -2.5835   -0.4156   -2.7368 H   0  0
   -4.7278   -1.2644   -1.8920 H   0  0
   -4.0881   -2.3792   -3.1234 H   0  0
   -6.0244   -2.7792   -2.7602 H   0  0
   -8.0223   -4.2161   -2.7484 H   0  0
   -6.3501   -6.5106    0.4489 H   0  0
   -4.3488   -5.0786    0.4279 H   0  0
   -8.7724   -6.6446   -0.3066 H   0  0
   -8.7236   -5.9974   -5.5465 H   0  0
  -10.6663   -7.0351   -6.7829 H   0  0
  -14.3884   -9.4157   -5.2035 H   0  0
  -16.0063  -10.5089   -3.9241 H   0  0
  -17.0004   -8.8513   -1.4074 H   0  0
  -16.6441   -9.8224    0.0411 H   0  0
  -15.3327   -8.9562   -0.7944 H   0  0
  -17.1552  -12.3638   -2.6305 H   0  0
  -17.7084  -11.8124   -1.0311 H   0  0
  -18.0648  -10.8413   -2.4796 H   0  0
  -14.0560  -11.0934   -1.0062 H   0  0
  -15.3674  -11.9596   -0.1707 H   0  0
  -14.8142  -12.5111   -1.7701 H   0  0
  -15.4310   -7.1707   -8.9663 H   0  0
  -14.9780   -9.2751  -10.1565 H   0  0
  -13.2657  -10.8292   -9.3178 H   0  0
   -1.5765   -3.0375   -1.8875 H   0  0
  1  2  1  0
  1 42  1  0
  1 43  1  0
  1 44  1  0
  2  3  1  0
  2 45  1  0
  2 46  1  0
  3  4  1  0
  3  6  1  0
  3 77  1  0
  4  5  1  0
  4 47  1  0
  4 48  1  0
  5 49  1  0
  5 50  1  0
  5 51  1  0
  6  7  1  0
  6 52  1  0
  6 53  1  0
  7  8  1  0
  7 54  1  0
  7 55  1  0
  8  9  1  0
  9 14  2  0
  9 10  1  0
 10 11  2  0
 10 56  1  0
 11 12  1  0
 11 57  1  0
 12 13  2  0
 12 15  1  0
 13 14  1  0
 13 58  1  0
 14 59  1  0
 15 16  1  0
 15 60  1  0
 16 25  2  0
 16 17  1  0
 17 18  2  0
 18 19  1  0
 18 61  1  0
 19 24  2  0
 19 20  1  0
 20 21  2  0
 20 62  1  0
 21 22  1  0
 21 34  1  0
 22 23  2  0
 22 26  1  0
 23 24  1  0
 24 25  1  0
 26 27  1  0
 26 63  1  0
 27 28  2  0
 27 29  1  0
 29 30  1  0
 29 64  1  0
 30 31  1  0
 30 32  1  0
 30 33  1  0
 31 65  1  0
 31 66  1  0
 31 67  1  0
 32 68  1  0
 32 69  1  0
 32 70  1  0
 33 71  1  0
 33 72  1  0
 33 73  1  0
 34 39  2  0
 34 35  1  0
 35 36  2  0
 35 41  1  0
 36 37  1  0
 36 74  1  0
 37 38  2  0
 37 75  1  0
 38 39  1  0
 38 76  1  0
 39 40  1  0
M  CHG  1   3   1
M  END
> <Name>
CHEMBL432314

$$$$
CHEMBL360914
  SciTegic01042614003D

 49 52  0  0  0  0            999 V2000
   -2.2972   -1.3229   -5.3618 C   0  0
   -1.8013   -2.1655   -4.3196 O   0  0
   -2.5855   -2.3123   -3.2192 C   0  0
   -2.1623   -3.1110   -2.1681 C   0  0
   -2.9644   -3.2592   -1.0451 C   0  0
   -4.1901   -2.6062   -0.9774 C   0  0
   -4.6085   -1.8103   -2.0281 C   0  0
   -3.8067   -1.6583   -3.1454 C   0  0
   -6.1393   -0.9961   -1.9425 Cl  0  0
   -5.1953   -2.7905    0.4259 Cl  0  0
   -2.5407   -4.0642    0.0161 N   0  0
   -1.3797   -4.8029   -0.0983 C   0  0
   -1.4113   -6.1516   -0.5240 C   0  0
   -2.6260   -6.7778   -0.8431 C   0  0
   -2.6358   -8.0788   -1.2520 C   0  0
   -1.4304   -8.8050   -1.3574 C   0  0
   -0.2179   -8.2044   -1.0461 C   0  0
   -0.1935   -6.8682   -0.6256 C   0  0
    0.9693   -6.2709   -0.3220 N   0  0
    1.0268   -5.0253    0.0734 C   0  0
   -0.1301   -4.2386    0.1982 C   0  0
   -0.0354   -2.8759    0.6280 C   0  0
    0.0397   -1.7949    0.9690 N   0  0
   -1.4587  -10.2076   -1.7994 C   0  0
   -0.3105  -10.9051   -1.9016 C   0  0
   -0.3388  -12.3032   -2.3423 C   0  0
    0.7479  -13.1217   -2.4828 N   0  0
    1.6733  -12.8872   -2.3109 H   0  0
    0.2813  -14.3345   -2.9122 C   0  0
   -1.0603  -14.2276   -3.0215 C   0  0
   -1.4168  -12.9900   -2.6660 N   0  0
   -3.8145   -8.6800   -1.5596 O   0  0
   -4.9985   -7.8902   -1.4316 C   0  0
   -1.5762   -1.2928   -6.1787 H   0  0
   -3.2450   -1.7175   -5.7281 H   0  0
   -2.4487   -0.3157   -4.9736 H   0  0
   -1.2100   -3.6175   -2.2232 H   0  0
   -4.1339   -1.0330   -3.9629 H   0  0
   -3.0623   -4.1039    0.8330 H   0  0
   -3.5531   -6.2294   -0.7645 H   0  0
    0.7020   -8.7643   -1.1283 H   0  0
    1.9875   -4.5902    0.3060 H   0  0
   -2.4000  -10.6783   -2.0421 H   0  0
    0.6307  -10.4343   -1.6589 H   0  0
    0.8745  -15.2118   -3.1242 H   0  0
   -1.7322  -15.0115   -3.3384 H   0  0
   -5.1016   -7.5545   -0.3998 H   0  0
   -4.9307   -7.0244   -2.0904 H   0  0
   -5.8664   -8.4893   -1.7072 H   0  0
  1  2  1  0
  1 34  1  0
  1 35  1  0
  1 36  1  0
  2  3  1  0
  3  8  2  0
  3  4  1  0
  4  5  2  0
  4 37  1  0
  5  6  1  0
  5 11  1  0
  6  7  2  0
  6 10  1  0
  7  8  1  0
  7  9  1  0
  8 38  1  0
 11 12  1  0
 11 39  1  0
 12 21  2  0
 12 13  1  0
 13 18  2  0
 13 14  1  0
 14 15  2  0
 14 40  1  0
 15 16  1  0
 15 32  1  0
 16 17  2  0
 16 24  1  0
 17 18  1  0
 17 41  1  0
 18 19  1  0
 19 20  2  0
 20 21  1  0
 20 42  1  0
 21 22  1  0
 22 23  3  0
 24 25  2  0
 24 43  1  0
 25 26  1  0
 25 44  1  0
 26 31  2  0
 26 27  1  0
 27 28  1  0
 27 29  1  0
 29 30  2  0
 29 45  1  0
 30 31  1  0
 30 46  1  0
 32 33  1  0
 33 47  1  0
 33 48  1  0
 33 49  1  0
M  END
> <Name>
CHEMBL360914

$$$$
CHEMBL418111
  SciTegic01042614003D

 70 74  0  0  0  0            999 V2000
    0.0607    1.4551   -0.0241 C   0  0
    0.0705   -0.0139   -0.0279 N   0  3  2  0  0  0
   -1.3111   -0.5124   -0.0168 C   0  0
   -1.3016   -2.0425   -0.0398 C   0  0
   -0.5726   -2.5427    1.1343 N   0  0
    0.8053   -2.0316    1.1500 C   0  0
    0.7785   -0.5016    1.1631 C   0  0
   -0.5899   -4.0110    1.1785 C   0  0
   -0.0462   -4.4870    2.5271 C   0  0
   -0.0643   -6.0162    2.5732 C   0  0
    0.4563   -6.4721    3.8645 N   0  0
    0.5365   -7.8242    4.1388 C   0  0
    0.1383   -8.6890    3.2082 N   0  0
    0.1916   -9.9897    3.4120 C   0  0
    0.6820  -10.4557    4.6440 C   0  0
    0.7705  -11.8265    4.9370 C   0  0
    1.2669  -12.1949    6.1772 C   0  0
    1.6614  -11.1950    7.0916 C   0  0
    1.5683   -9.9151    6.7935 N   0  0
    1.0979   -9.5061    5.6138 C   0  0
    1.0095   -8.2050    5.3101 N   0  0
    2.1577  -11.5680    8.3322 N   0  0
    2.5388  -10.6253    9.2168 C   0  0
    2.4476   -9.4480    8.9276 O   0  0
    3.0210  -10.9878   10.4221 N   0  0
    3.5066  -10.0148   11.3028 C   0  0
    4.5920  -10.2971   12.1218 C   0  0
    5.0692   -9.3345   12.9896 C   0  0
    4.4674   -8.0907   13.0436 C   0  0
    3.3862   -7.8066   12.2297 C   0  0
    2.9078   -8.7630   11.3556 C   0  0
    1.3821  -13.6276    6.5406 C   0  0
    0.3173  -14.2804    7.1618 C   0  0
    0.4308  -15.6155    7.4974 C   0  0
    1.5972  -16.3049    7.2193 C   0  0
    2.6566  -15.6633    6.6036 C   0  0
    2.5536  -14.3299    6.2577 C   0  0
    3.8817  -13.5282    5.4785 Cl  0  0
   -1.1471  -13.4167    7.5127 Cl  0  0
    1.0859    1.8253   -0.0336 H   0  0
   -0.4646    1.8172   -0.9078 H   0  0
   -0.4464    1.8127    0.8720 H   0  0
   -1.8152   -0.1658    0.8853 H   0  0
   -1.8391   -0.1392   -0.8943 H   0  0
   -2.3265   -2.4129   -0.0165 H   0  0
   -0.8096   -2.3896   -0.9484 H   0  0
    1.3176   -2.3940    2.0412 H   0  0
    1.3320   -2.3784    0.2609 H   0  0
    1.7996   -0.1203    1.1604 H   0  0
    0.2636   -0.1549    2.0592 H   0  0
   -1.6128   -4.3662    1.0533 H   0  0
    0.0327   -4.4060    0.3758 H   0  0
    0.9766   -4.1318    2.6523 H   0  0
   -0.6689   -4.0920    3.3298 H   0  0
   -1.0872   -6.3714    2.4480 H   0  0
    0.5583   -6.4113    1.7705 H   0  0
    0.7447   -5.8248    4.5269 H   0  0
   -0.1345  -10.6820    2.6499 H   0  0
    0.4609  -12.5705    4.2180 H   0  0
    2.2305  -12.5074    8.5630 H   0  0
    3.0315  -11.9231   10.6790 H   0  0
    5.0622  -11.2685   12.0804 H   0  0
    5.9130   -9.5536   13.6271 H   0  0
    4.8424   -7.3396   13.7230 H   0  0
    2.9181   -6.8343   12.2744 H   0  0
    2.0663   -8.5389   10.7167 H   0  0
   -0.3929  -16.1221    7.9783 H   0  0
    1.6813  -17.3485    7.4843 H   0  0
    3.5649  -16.2069    6.3894 H   0  0
    0.5404   -0.3447   -0.8572 H   0  0
  1  2  1  0
  1 40  1  0
  1 41  1  0
  1 42  1  0
  2  7  1  0
  2  3  1  0
  2 70  1  0
  3  4  1  0
  3 43  1  0
  3 44  1  0
  4  5  1  0
  4 45  1  0
  4 46  1  0
  5  6  1  0
  5  8  1  0
  6  7  1  0
  6 47  1  0
  6 48  1  0
  7 49  1  0
  7 50  1  0
  8  9  1  0
  8 51  1  0
  8 52  1  0
  9 10  1  0
  9 53  1  0
  9 54  1  0
 10 11  1  0
 10 55  1  0
 10 56  1  0
 11 12  1  0
 11 57  1  0
 12 21  2  0
 12 13  1  0
 13 14  2  0
 14 15  1  0
 14 58  1  0
 15 20  2  0
 15 16  1  0
 16 17  2  0
 16 59  1  0
 17 18  1  0
 17 32  1  0
 18 19  2  0
 18 22  1  0
 19 20  1  0
 20 21  1  0
 22 23  1  0
 22 60  1  0
 23 24  2  0
 23 25  1  0
 25 26  1  0
 25 61  1  0
 26 31  2  0
 26 27  1  0
 27 28  2  0
 27 62  1  0
 28 29  1  0
 28 63  1  0
 29 30  2  0
 29 64  1  0
 30 31  1  0
 30 65  1  0
 31 66  1  0
 32 37  2  0
 32 33  1  0
 33 34  2  0
 33 39  1  0
 34 35  1  0
 34 67  1  0
 35 36  2  0
 35 68  1  0
 36 37  1  0
 36 69  1  0
 37 38  1  0
M  CHG  1   2   1
M  END
> <Name>
CHEMBL418111

$$$$
CHEMBL304052
  SciTegic01042614003D

 45 48  0  0  0  0            999 V2000
   -2.0811   -2.9415   -2.6125 C   0  0
   -1.3780   -2.8515   -1.3717 O   0  0
   -1.8428   -1.9539   -0.4626 C   0  0
   -3.0168   -1.2604   -0.7110 C   0  0
   -3.4894   -0.3449    0.2190 C   0  0
   -2.7840   -0.1260    1.3970 C   0  0
   -1.6134   -0.8190    1.6410 C   0  0
   -1.1446   -1.7358    0.7175 C   0  0
    0.3223   -2.6095    1.0310 Cl  0  0
   -3.3734    1.0187    2.5615 Cl  0  0
   -4.6733    0.3567   -0.0287 N   0  0
   -4.6366    1.7207   -0.2356 C   0  0
   -5.7796    2.5241   -0.0136 C   0  0
   -6.9863    1.9567    0.4254 C   0  0
   -8.0728    2.7458    0.6337 C   0  0
   -8.0030    4.1332    0.4135 C   0  0
   -6.8219    4.7192   -0.0206 C   0  0
   -5.6923    3.9193   -0.2401 C   0  0
   -4.5406    4.4655   -0.6583 N   0  0
   -3.4687    3.7460   -0.8710 C   0  0
   -3.4628    2.3566   -0.6674 C   0  0
   -2.2725    1.5961   -0.9026 C   0  0
   -1.3282    0.9927   -1.0891 N   0  0
   -9.1594    4.9474    0.6384 C   0  0
  -10.1074    5.6148    0.8227 C   0  0
  -11.2638    6.4290    1.0476 C   0  0
  -12.4678    5.8643    1.4910 C   0  0
  -13.5560    6.6863    1.6943 C   0  0
  -13.4746    7.9853    1.4769 N   0  0
  -12.3615    8.5582    1.0594 C   0  0
  -11.2224    7.8141    0.8360 C   0  0
   -1.5689   -3.6437   -3.2702 H   0  0
   -3.0975   -3.2901   -2.4297 H   0  0
   -2.1131   -1.9593   -3.0840 H   0  0
   -3.5628   -1.4319   -1.6268 H   0  0
   -1.0662   -0.6478    2.5563 H   0  0
   -5.5203   -0.1152   -0.0551 H   0  0
   -7.0512    0.8925    0.5974 H   0  0
   -8.9985    2.3035    0.9712 H   0  0
   -6.7739    5.7850   -0.1884 H   0  0
   -2.5654    4.2331   -1.2074 H   0  0
  -12.5419    4.8019    1.6703 H   0  0
  -14.4881    6.2609    2.0358 H   0  0
  -12.3414    9.6253    0.8944 H   0  0
  -10.3136    8.2904    0.4988 H   0  0
  1  2  1  0
  1 32  1  0
  1 33  1  0
  1 34  1  0
  2  3  1  0
  3  8  2  0
  3  4  1  0
  4  5  2  0
  4 35  1  0
  5  6  1  0
  5 11  1  0
  6  7  2  0
  6 10  1  0
  7  8  1  0
  7 36  1  0
  8  9  1  0
 11 12  1  0
 11 37  1  0
 12 21  2  0
 12 13  1  0
 13 18  2  0
 13 14  1  0
 14 15  2  0
 14 38  1  0
 15 16  1  0
 15 39  1  0
 16 17  2  0
 16 24  1  0
 17 18  1  0
 17 40  1  0
 18 19  1  0
 19 20  2  0
 20 21  1  0
 20 41  1  0
 21 22  1  0
 22 23  3  0
 24 25  3  0
 25 26  1  0
 26 31  2  0
 26 27  1  0
 27 28  2  0
 27 42  1  0
 28 29  1  0
 28 43  1  0
 29 30  2  0
 30 31  1  0
 30 44  1  0
 31 45  1  0
M  END
> <Name>
CHEMBL304052

$$$$
CHEMBL1088120
  SciTegic01042614003D

 67 70  0  0  0  0            999 V2000
   -0.6310    1.6762   -0.3761 C   0  0
   -0.7808    0.2560   -0.4280 O   0  0
   -0.1031   -0.4003   -1.4058 C   0  0
    0.6796    0.3020   -2.2757 C   0  0
    1.3811   -0.3709   -3.2866 C   0  0
    1.2785   -1.7785   -3.4061 C   0  0
    0.4703   -2.4853   -2.5052 C   0  0
   -0.2091   -1.8010   -1.5102 C   0  0
   -1.0556   -2.5449   -0.5559 C   0  0
   -1.1590   -3.8643   -0.6498 C   0  0
   -2.0229   -4.6235    0.3241 C   0  0
   -3.0413   -5.4658   -0.4468 C   0  0
   -3.9183   -6.2366    0.5419 C   0  0
   -4.9368   -7.0789   -0.2289 C   0  0
   -5.7788   -7.8190    0.7204 N   0  0
   -4.9909   -8.8200    1.4542 C   0  0
   -5.8918   -9.5248    2.4718 C   0  0
   -7.0071  -10.1065    1.7912 O   0  0
   -7.7969   -9.1597    1.0665 C   0  0
   -6.9153   -8.4512    0.0347 C   0  0
    1.9495   -2.4254   -4.3714 N   0  0
    2.7126   -1.7956   -5.2271 C   0  0
    2.8733   -0.4009   -5.1828 C   0  0
    2.1987    0.3371   -4.1991 C   0  0
    2.3298    1.7093   -4.1223 N   0  0
    2.7251    2.4379   -5.2484 C   0  0
    3.9574    3.0773   -5.2651 C   0  0
    4.3460    3.7986   -6.3824 C   0  0
    3.5031    3.8808   -7.4831 C   0  0
    2.2760    3.2437   -7.4655 C   0  0
    1.8872    2.5184   -6.3546 C   0  0
    0.3491    1.7137   -6.3384 Cl  0  0
    3.9903    4.7851   -8.8826 Cl  0  0
    5.5519    4.4259   -6.4012 O   0  0
    6.4155    4.2050   -5.2843 C   0  0
    3.7164    0.2607   -6.1326 C   0  0
    4.3852    0.7856   -6.8860 N   0  0
    0.4190    1.9255   -0.2226 H   0  0
   -0.9746    2.1124   -1.3140 H   0  0
   -1.2231    2.0741    0.4481 H   0  0
    0.7584    1.3754   -2.1859 H   0  0
    0.3815   -3.5589   -2.5830 H   0  0
   -1.5905   -2.0151    0.2184 H   0  0
   -0.6242   -4.3942   -1.4241 H   0  0
   -1.3971   -5.2767    0.9322 H   0  0
   -2.5479   -3.9194    0.9696 H   0  0
   -3.6671   -4.8126   -1.0549 H   0  0
   -2.5162   -6.1699   -1.0922 H   0  0
   -3.2925   -6.8899    1.1500 H   0  0
   -4.4434   -5.5325    1.1874 H   0  0
   -5.5626   -6.4257   -0.8370 H   0  0
   -4.4117   -7.7831   -0.8744 H   0  0
   -4.5903   -9.5528    0.7537 H   0  0
   -4.1701   -8.3268    1.9749 H   0  0
   -5.3263  -10.3069    2.9783 H   0  0
   -6.2494   -8.8010    3.2041 H   0  0
   -8.6092   -9.6777    0.5568 H   0  0
   -8.2099   -8.4253    1.7580 H   0  0
   -7.4993   -7.6887   -0.4808 H   0  0
   -6.5455   -9.1781   -0.6885 H   0  0
    3.2321   -2.3619   -5.9860 H   0  0
    2.1477    2.1679   -3.2872 H   0  0
    4.6118    3.0129   -4.4084 H   0  0
    1.6220    3.3094   -8.3224 H   0  0
    7.3739    4.6921   -5.4641 H   0  0
    5.9601    4.6200   -4.3852 H   0  0
    6.5714    3.1344   -5.1517 H   0  0
  1  2  1  0
  1 38  1  0
  1 39  1  0
  1 40  1  0
  2  3  1  0
  3  8  2  0
  3  4  1  0
  4  5  2  0
  4 41  1  0
  5 24  1  0
  5  6  1  0
  6  7  2  0
  6 21  1  0
  7  8  1  0
  7 42  1  0
  8  9  1  0
  9 10  2  0
  9 43  1  0
 10 11  1  0
 10 44  1  0
 11 12  1  0
 11 45  1  0
 11 46  1  0
 12 13  1  0
 12 47  1  0
 12 48  1  0
 13 14  1  0
 13 49  1  0
 13 50  1  0
 14 15  1  0
 14 51  1  0
 14 52  1  0
 15 20  1  0
 15 16  1  0
 16 17  1  0
 16 53  1  0
 16 54  1  0
 17 18  1  0
 17 55  1  0
 17 56  1  0
 18 19  1  0
 19 20  1  0
 19 57  1  0
 19 58  1  0
 20 59  1  0
 20 60  1  0
 21 22  2  0
 22 23  1  0
 22 61  1  0
 23 24  2  0
 23 36  1  0
 24 25  1  0
 25 26  1  0
 25 62  1  0
 26 31  2  0
 26 27  1  0
 27 28  2  0
 27 63  1  0
 28 29  1  0
 28 34  1  0
 29 30  2  0
 29 33  1  0
 30 31  1  0
 30 64  1  0
 31 32  1  0
 34 35  1  0
 35 65  1  0
 35 66  1  0
 35 67  1  0
 36 37  3  0
M  END
> <Name>
CHEMBL1088120

$$$$
CHEMBL326041
  SciTegic01042614003D

 43 46  0  0  0  0            999 V2000
   -0.0178    1.4608    0.0101 C   0  0
    0.0021   -0.0041    0.0020 N   0  0
   -1.1808   -0.6992    0.0039 C   0  0
   -1.1793   -2.1109   -0.0037 C   0  0
    0.0431   -2.8209   -0.0135 C   0  0
    1.2184   -2.1187   -0.0153 C   0  0
    1.1813   -0.6547   -0.0127 C   0  0
    2.2223   -0.0221   -0.0197 O   0  0
    2.5161   -2.8335   -0.0249 C   0  0
    3.1327   -3.1828    1.1772 C   0  0
    4.3424   -3.8490    1.1613 C   0  0
    4.9428   -4.1701   -0.0429 C   0  0
    4.3369   -3.8268   -1.2380 C   0  0
    3.1243   -3.1655   -1.2361 C   0  0
    2.3618   -2.7423   -2.7372 Cl  0  0
    2.3811   -2.7803    2.6894 Cl  0  0
   -2.4105   -2.7832   -0.0019 C   0  0
   -3.5204   -2.0689    0.0069 N   0  0
   -3.4836   -0.7410    0.0139 C   0  0
   -2.3465   -0.0625    0.0125 N   0  0
   -4.6746   -0.0428    0.0225 N   0  0
   -5.9482   -0.7668    0.0237 C   0  0
   -7.0871    0.2201    0.0336 C   0  0
   -7.6804    0.5905   -1.1586 C   0  0
   -8.7273    1.4989   -1.1385 C   0  0
   -9.1401    2.0032    0.0856 C   0  0
   -8.4989    1.5864    1.2364 C   0  0
   -7.5095    0.7161    1.1799 N   0  0
    1.0048    1.8381    0.0023 H   0  0
   -0.5450    1.8219   -0.8730 H   0  0
   -0.5280    1.8123    0.9069 H   0  0
    0.0498   -3.9008   -0.0190 H   0  0
    4.8208   -4.1196    2.0909 H   0  0
    5.8889   -4.6908   -0.0499 H   0  0
    4.8111   -4.0800   -2.1748 H   0  0
   -2.4493   -3.8625   -0.0079 H   0  0
   -4.6681    0.9272    0.0277 H   0  0
   -6.0137   -1.3883   -0.8694 H   0  0
   -6.0065   -1.3979    0.9105 H   0  0
   -7.3326    0.1776   -2.0940 H   0  0
   -9.2097    1.8069   -2.0543 H   0  0
   -9.9524    2.7130    0.1387 H   0  0
   -8.8144    1.9744    2.1937 H   0  0
  1  2  1  0
  1 29  1  0
  1 30  1  0
  1 31  1  0
  2  7  1  0
  2  3  1  0
  3 20  2  0
  3  4  1  0
  4  5  1  0
  4 17  2  0
  5  6  2  0
  5 32  1  0
  6  7  1  0
  6  9  1  0
  7  8  2  0
  9 14  2  0
  9 10  1  0
 10 11  2  0
 10 16  1  0
 11 12  1  0
 11 33  1  0
 12 13  2  0
 12 34  1  0
 13 14  1  0
 13 35  1  0
 14 15  1  0
 17 18  1  0
 17 36  1  0
 18 19  2  0
 19 20  1  0
 19 21  1  0
 21 22  1  0
 21 37  1  0
 22 23  1  0
 22 38  1  0
 22 39  1  0
 23 28  2  0
 23 24  1  0
 24 25  2  0
 24 40  1  0
 25 26  1  0
 25 41  1  0
 26 27  2  0
 26 42  1  0
 27 28  1  0
 27 43  1  0
M  END
> <Name>
CHEMBL326041

$$$$
CHEMBL103293
  SciTegic01042614003D

 63 67  0  0  0  0            999 V2000
   -2.0823   -2.9403   -2.6145 C   0  0
   -1.3785   -2.8508   -1.3740 O   0  0
   -1.8431   -1.9538   -0.4642 C   0  0
   -3.0172   -1.2603   -0.7117 C   0  0
   -3.4893   -0.3450    0.2187 C   0  0
   -2.7831   -0.1263    1.3964 C   0  0
   -1.6126   -0.8197    1.6397 C   0  0
   -1.1444   -1.7363    0.7157 C   0  0
    0.3225   -2.6105    1.0283 Cl  0  0
   -3.3716    1.0186    2.5612 Cl  0  0
   -4.6733    0.3567   -0.0281 N   0  0
   -4.6367    1.7204   -0.2354 C   0  0
   -5.7798    2.5242   -0.0134 C   0  0
   -6.9865    1.9586    0.4254 C   0  0
   -8.0725    2.7508    0.6326 C   0  0
   -8.0011    4.1342    0.4115 C   0  0
   -6.8239    4.7185   -0.0212 C   0  0
   -5.6928    3.9190   -0.2402 C   0  0
   -4.5416    4.4651   -0.6591 N   0  0
   -3.4697    3.7455   -0.8722 C   0  0
   -3.4632    2.3563   -0.6677 C   0  0
   -2.2730    1.5959   -0.9034 C   0  0
   -1.3287    0.9926   -1.0903 N   0  0
   -9.1986    4.9783    0.6431 C   0  0
   -9.1392    6.3531    0.4207 C   0  0
  -10.2565    7.1333    0.6374 C   0  0
  -11.4341    6.5535    1.0746 C   0  0
  -11.4987    5.1900    1.2975 C   0  0
  -10.3890    4.3990    1.0785 C   0  0
  -12.7849    4.5660    1.7742 C   0  0
  -13.6283    4.1505    0.5671 C   0  0
  -14.8821    3.5422    1.0319 N   0  0
  -14.6258    2.2714    1.7252 C   0  0
  -15.9495    1.7031    2.2436 C   0  0
  -16.8576    1.5494    1.1494 O   0  0
  -17.1302    2.7679    0.4520 C   0  0
  -15.8184    3.3469   -0.0846 C   0  0
   -1.5689   -3.6403   -3.2737 H   0  0
   -3.0978   -3.2916   -2.4315 H   0  0
   -2.1170   -1.9574   -3.0843 H   0  0
   -3.5638   -1.4316   -1.6273 H   0  0
   -1.0649   -0.6487    2.5546 H   0  0
   -5.5204   -0.1151   -0.0535 H   0  0
   -7.0531    0.8946    0.5982 H   0  0
   -8.9990    2.3104    0.9703 H   0  0
   -6.7763    5.7843   -0.1890 H   0  0
   -2.5667    4.2326   -1.2093 H   0  0
   -8.2204    6.8067    0.0797 H   0  0
  -10.2115    8.1986    0.4657 H   0  0
  -12.3061    7.1680    1.2430 H   0  0
  -10.4418    3.3338    1.2485 H   0  0
  -12.5602    3.6881    2.3799 H   0  0
  -13.3391    5.2885    2.3733 H   0  0
  -13.8530    5.0284   -0.0386 H   0  0
  -13.0741    3.4280   -0.0319 H   0  0
  -14.1725    1.5633    1.0315 H   0  0
  -13.9506    2.4438    2.5633 H   0  0
  -15.7721    0.7333    2.7083 H   0  0
  -16.3764    2.3866    2.9776 H   0  0
  -17.8066    2.5680   -0.3790 H   0  0
  -17.5914    3.4823    1.1339 H   0  0
  -16.0138    4.3044   -0.5675 H   0  0
  -15.3842    2.6560   -0.8072 H   0  0
  1  2  1  0
  1 38  1  0
  1 39  1  0
  1 40  1  0
  2  3  1  0
  3  8  2  0
  3  4  1  0
  4  5  2  0
  4 41  1  0
  5  6  1  0
  5 11  1  0
  6  7  2  0
  6 10  1  0
  7  8  1  0
  7 42  1  0
  8  9  1  0
 11 12  1  0
 11 43  1  0
 12 21  2  0
 12 13  1  0
 13 18  2  0
 13 14  1  0
 14 15  2  0
 14 44  1  0
 15 16  1  0
 15 45  1  0
 16 17  2  0
 16 24  1  0
 17 18  1  0
 17 46  1  0
 18 19  1  0
 19 20  2  0
 20 21  1  0
 20 47  1  0
 21 22  1  0
 22 23  3  0
 24 29  2  0
 24 25  1  0
 25 26  2  0
 25 48  1  0
 26 27  1  0
 26 49  1  0
 27 28  2  0
 27 50  1  0
 28 29  1  0
 28 30  1  0
 29 51  1  0
 30 31  1  0
 30 52  1  0
 30 53  1  0
 31 32  1  0
 31 54  1  0
 31 55  1  0
 32 37  1  0
 32 33  1  0
 33 34  1  0
 33 56  1  0
 33 57  1  0
 34 35  1  0
 34 58  1  0
 34 59  1  0
 35 36  1  0
 36 37  1  0
 36 60  1  0
 36 61  1  0
 37 62  1  0
 37 63  1  0
M  END
> <Name>
CHEMBL103293

$$$$
CHEMBL119385
  SciTegic01042614003D

 37 40  0  0  0  0            999 V2000
    0.3696    1.9652   -0.0174 C   0  0
    1.5735    2.6379    0.0930 C   0  0
    2.7630    1.9366    0.0882 C   0  0
    2.7487    0.5450   -0.0285 C   0  0
    1.5297   -0.1275   -0.1395 C   0  0
    0.3480    0.5868   -0.1333 C   0  0
    1.5002   -1.8571   -0.2851 Cl  0  0
    4.0187   -0.2131   -0.0349 C   0  0
    4.5834   -0.6887    1.1572 C   0  0
    3.9601   -0.4599    2.3969 C   0  0
    4.5428   -0.9397    3.5281 C   0  0
    5.7554   -1.6551    3.4450 C   0  0
    6.3355   -1.8675    2.2867 N   0  0
    5.7615   -1.3869    1.1032 N   0  0
    6.3624   -1.6090   -0.0927 C   0  0
    5.8518   -1.1753   -1.2110 N   0  0
    4.6990   -0.4865   -1.2438 C   0  0
    4.2431   -0.0966   -2.3103 O   0  0
    6.5026   -2.2719    4.9167 S   0  0
    7.8798   -3.2054    4.3366 C   0  0
    9.1647   -2.6906    4.4464 C   0  0
   10.2431   -3.4240    3.9910 C   0  0
   10.0446   -4.6720    3.4245 C   0  0
    8.7648   -5.1889    3.3132 C   0  0
    7.6823   -4.4616    3.7731 C   0  0
    6.4341   -4.9682    3.6702 F   0  0
   11.1014   -5.3862    2.9793 F   0  0
    4.2725    2.7828    0.2262 Cl  0  0
   -0.5579    2.5184   -0.0085 H   0  0
    1.5830    3.7141    0.1828 H   0  0
   -0.5954    0.0681   -0.2188 H   0  0
    3.0317    0.0894    2.4499 H   0  0
    4.0780   -0.7729    4.4885 H   0  0
    7.2906   -2.1606   -0.1189 H   0  0
    9.3209   -1.7172    4.8873 H   0  0
   11.2424   -3.0234    4.0764 H   0  0
    8.6124   -6.1623    2.8708 H   0  0
  1  6  2  0
  1  2  1  0
  1 29  1  0
  2  3  2  0
  2 30  1  0
  3  4  1  0
  3 28  1  0
  4  5  2  0
  4  8  1  0
  5  6  1  0
  5  7  1  0
  6 31  1  0
  8 17  1  0
  8  9  2  0
  9 14  1  0
  9 10  1  0
 10 11  2  0
 10 32  1  0
 11 12  1  0
 11 33  1  0
 12 13  2  0
 12 19  1  0
 13 14  1  0
 14 15  1  0
 15 16  2  0
 15 34  1  0
 16 17  1  0
 17 18  2  0
 19 20  1  0
 20 25  2  0
 20 21  1  0
 21 22  2  0
 21 35  1  0
 22 23  1  0
 22 36  1  0
 23 24  2  0
 23 27  1  0
 24 25  1  0
 24 37  1  0
 25 26  1  0
M  END
> <Name>
CHEMBL119385

$$$$
CHEMBL335025
  SciTegic01042614003D

 51 54  0  0  0  0            999 V2000
   -2.3501   -1.6141    1.7746 C   0  0
   -1.1668   -1.4997    0.8486 C   0  0
   -1.1601   -2.1852   -0.3511 C   0  0
   -0.0758   -2.0826   -1.2027 C   0  0
    1.0102   -1.2895   -0.8545 C   0  0
    1.0065   -0.6005    0.3474 C   0  0
   -0.0858   -0.7006    1.1990 C   0  0
   -0.0951   -0.0028    2.4100 N   0  0
    0.0112   -0.6881    3.6011 C   0  0
   -0.4281   -0.1112    4.8220 C   0  0
   -0.9800    1.1651    4.8526 C   0  0
   -1.4024    1.7032    6.0684 C   0  0
   -1.9671    2.9943    6.1354 C   0  0
   -2.3697    3.4903    7.3372 C   0  0
   -2.2367    2.7453    8.5202 C   0  0
   -1.6994    1.4941    8.5177 C   0  0
   -1.2635    0.9251    7.3033 C   0  0
   -0.7087   -0.3551    7.2675 C   0  0
   -0.2878   -0.8918    6.0540 C   0  0
    0.2485   -2.1249    6.0005 N   0  0
    0.6519   -2.6539    4.8766 C   0  0
    0.5509   -1.9800    3.6481 C   0  0
    1.0044   -2.6112    2.4454 C   0  0
    1.3641   -3.1120    1.4912 N   0  0
   -2.6537    3.2859    9.6951 O   0  0
   -2.4960    2.4866   10.8691 C   0  0
   -2.9125    4.7353    7.3937 O   0  0
   -3.0245    5.4508    6.1618 C   0  0
    2.0758   -1.1898   -1.6923 O   0  0
    3.1076   -0.2727   -1.3233 C   0  0
   -0.0711   -2.9465   -2.7084 Cl  0  0
   -3.0775   -0.8394    1.5321 H   0  0
   -2.8107   -2.5949    1.6561 H   0  0
   -2.0180   -1.4908    2.8055 H   0  0
   -2.0033   -2.8025   -0.6239 H   0  0
    1.8500    0.0166    0.6197 H   0  0
   -0.1763    0.9638    2.4121 H   0  0
   -1.0806    1.7360    3.9413 H   0  0
   -2.0789    3.5857    5.2386 H   0  0
   -1.6072    0.9408    9.4406 H   0  0
   -0.6069   -0.9274    8.1777 H   0  0
    1.0752   -3.6474    4.8916 H   0  0
   -2.8676    3.0352   11.7346 H   0  0
   -3.0596    1.5605   10.7565 H   0  0
   -1.4406    2.2547   11.0117 H   0  0
   -2.0338    5.5826    5.7268 H   0  0
   -3.6527    4.8885    5.4709 H   0  0
   -3.4725    6.4269    6.3479 H   0  0
    3.9310   -0.3471   -2.0336 H   0  0
    2.7112    0.7427   -1.3316 H   0  0
    3.4676   -0.5140   -0.3231 H   0  0
  1  2  1  0
  1 32  1  0
  1 33  1  0
  1 34  1  0
  2  7  2  0
  2  3  1  0
  3  4  2  0
  3 35  1  0
  4  5  1  0
  4 31  1  0
  5  6  2  0
  5 29  1  0
  6  7  1  0
  6 36  1  0
  7  8  1  0
  8  9  1  0
  8 37  1  0
  9 22  2  0
  9 10  1  0
 10 19  2  0
 10 11  1  0
 11 12  2  0
 11 38  1  0
 12 17  1  0
 12 13  1  0
 13 14  2  0
 13 39  1  0
 14 15  1  0
 14 27  1  0
 15 16  2  0
 15 25  1  0
 16 17  1  0
 16 40  1  0
 17 18  2  0
 18 19  1  0
 18 41  1  0
 19 20  1  0
 20 21  2  0
 21 22  1  0
 21 42  1  0
 22 23  1  0
 23 24  3  0
 25 26  1  0
 26 43  1  0
 26 44  1  0
 26 45  1  0
 27 28  1  0
 28 46  1  0
 28 47  1  0
 28 48  1  0
 29 30  1  0
 30 49  1  0
 30 50  1  0
 30 51  1  0
M  END
> <Name>
CHEMBL335025

$$$$
CHEMBL124333
  SciTegic01042614003D

 49 51  0  0  0  0            999 V2000
    2.8682   -6.1465    7.2727 C   0  0
    2.4748   -6.4500    5.9328 O   0  0
    2.3996   -5.3085    5.0764 C   0  0
    1.9720   -5.7494    3.6752 C   0  0
    0.6431   -6.2726    3.7253 O   0  0
    0.1086   -6.7117    2.5561 C   0  0
    0.8516   -6.6425    1.3994 C   0  0
    0.3018   -7.0954    0.1905 C   0  0
   -1.0142   -7.6179    0.1839 C   0  0
   -1.7496   -7.6777    1.3766 C   0  0
   -1.1914   -7.2357    2.5415 C   0  0
   -1.9050   -7.2996    3.6973 O   0  0
   -3.2237   -7.8439    3.6163 C   0  0
   -1.5655   -8.0737   -1.0361 C   0  0
   -0.7701   -7.9828   -2.1884 C   0  0
    0.5254   -7.4504   -2.0889 C   0  0
    1.0108   -7.0363   -0.9465 N   0  0
   -1.2740   -8.4288   -3.4524 C   0  0
   -1.6737   -8.7827   -4.4552 N   0  0
   -2.8441   -8.5914   -1.0913 N   0  0
   -3.0717   -9.9296   -0.7556 C   0  0
   -2.0361  -10.7060   -0.2534 C   0  0
   -2.2649  -12.0316    0.0783 C   0  0
   -3.5289  -12.5813   -0.0920 C   0  0
   -4.5597  -11.8072   -0.5923 C   0  0
   -4.3365  -10.4826   -0.9189 C   0  0
   -5.6347   -9.5113   -1.5395 Cl  0  0
   -3.8149  -14.2425    0.3232 Cl  0  0
   -1.2525  -12.7941    0.5698 O   0  0
   -0.0123  -12.1345    0.8326 C   0  0
    3.8552   -5.6841    7.2657 H   0  0
    2.1479   -5.4588    7.7159 H   0  0
    2.9014   -7.0651    7.8585 H   0  0
    1.6697   -4.6034    5.4741 H   0  0
    3.3770   -4.8287    5.0239 H   0  0
    2.0004   -4.8938    3.0005 H   0  0
    2.6525   -6.5202    3.3133 H   0  0
    1.8538   -6.2407    1.4222 H   0  0
   -2.7537   -8.0755    1.3742 H   0  0
   -3.6811   -7.8370    4.6057 H   0  0
   -3.8241   -7.2418    2.9343 H   0  0
   -3.1720   -8.8682    3.2471 H   0  0
    1.1363   -7.3815   -2.9769 H   0  0
   -3.5846   -8.0268   -1.3631 H   0  0
   -1.0536  -10.2774   -0.1218 H   0  0
   -5.5416  -12.2370   -0.7242 H   0  0
    0.3947  -11.7414   -0.0990 H   0  0
   -0.1778  -11.3145    1.5314 H   0  0
    0.6922  -12.8446    1.2659 H   0  0
  1  2  1  0
  1 31  1  0
  1 32  1  0
  1 33  1  0
  2  3  1  0
  3  4  1  0
  3 34  1  0
  3 35  1  0
  4  5  1  0
  4 36  1  0
  4 37  1  0
  5  6  1  0
  6 11  2  0
  6  7  1  0
  7  8  2  0
  7 38  1  0
  8 17  1  0
  8  9  1  0
  9 10  2  0
  9 14  1  0
 10 11  1  0
 10 39  1  0
 11 12  1  0
 12 13  1  0
 13 40  1  0
 13 41  1  0
 13 42  1  0
 14 15  2  0
 14 20  1  0
 15 16  1  0
 15 18  1  0
 16 17  2  0
 16 43  1  0
 18 19  3  0
 20 21  1  0
 20 44  1  0
 21 26  2  0
 21 22  1  0
 22 23  2  0
 22 45  1  0
 23 24  1  0
 23 29  1  0
 24 25  2  0
 24 28  1  0
 25 26  1  0
 25 46  1  0
 26 27  1  0
 29 30  1  0
 30 47  1  0
 30 48  1  0
 30 49  1  0
M  END
> <Name>
CHEMBL124333

$$$$
CHEMBL67878
  SciTegic01042614003D

 54 58  0  0  0  0            999 V2000
   -2.0812   -2.9413   -2.6129 C   0  0
   -1.3781   -2.8514   -1.3721 O   0  0
   -1.8428   -1.9539   -0.4629 C   0  0
   -3.0168   -1.2604   -0.7112 C   0  0
   -3.4894   -0.3449    0.2189 C   0  0
   -2.7839   -0.1261    1.3969 C   0  0
   -1.6133   -0.8192    1.6408 C   0  0
   -1.1446   -1.7359    0.7171 C   0  0
    0.3221   -2.6100    1.0308 Cl  0  0
   -3.3733    1.0185    2.5615 Cl  0  0
   -4.6733    0.3567   -0.0287 N   0  0
   -4.6366    1.7207   -0.2356 C   0  0
   -5.7794    2.5239   -0.0136 C   0  0
   -6.9863    1.9564    0.4249 C   0  0
   -8.0729    2.7452    0.6327 C   0  0
   -8.0032    4.1328    0.4125 C   0  0
   -6.8219    4.7189   -0.0216 C   0  0
   -5.6922    3.9193   -0.2401 C   0  0
   -4.5404    4.4656   -0.6582 N   0  0
   -3.4684    3.7461   -0.8707 C   0  0
   -3.4626    2.3567   -0.6675 C   0  0
   -2.2723    1.5961   -0.9026 C   0  0
   -1.3280    0.9928   -1.0891 N   0  0
   -9.1924    4.9700    0.6436 C   0  0
  -10.3386    4.4079    1.0634 C   0  0
  -11.5280    5.2452    1.2946 C   0  0
  -11.4603    6.6334    1.0687 C   0  0
  -12.5427    7.4250    1.2747 C   0  0
  -13.7534    6.8617    1.7192 C   0  0
  -14.8869    7.6618    1.9386 C   0  0
  -16.0448    7.0890    2.3684 C   0  0
  -16.1258    5.7164    2.5956 C   0  0
  -15.0488    4.9090    2.3946 C   0  0
  -13.8354    5.4649    1.9503 C   0  0
  -12.7084    4.6601    1.7278 C   0  0
   -1.5690   -3.6435   -3.2707 H   0  0
   -3.0976   -3.2899   -2.4301 H   0  0
   -2.1133   -1.9590   -3.0843 H   0  0
   -3.5629   -1.4318   -1.6270 H   0  0
   -1.0661   -0.6480    2.5560 H   0  0
   -5.5203   -0.1152   -0.0550 H   0  0
   -7.0512    0.8921    0.5968 H   0  0
   -8.9987    2.3028    0.9698 H   0  0
   -6.7740    5.7846   -0.1898 H   0  0
   -2.5651    4.2331   -1.2074 H   0  0
   -9.1434    6.0358    0.4758 H   0  0
  -10.3876    3.3421    1.2312 H   0  0
  -10.5350    7.0737    0.7275 H   0  0
  -12.4752    8.4883    1.0977 H   0  0
  -14.8400    8.7271    1.7673 H   0  0
  -16.9139    7.7079    2.5362 H   0  0
  -17.0564    5.2873    2.9365 H   0  0
  -15.1254    3.8470    2.5754 H   0  0
  -12.7582    3.5945    1.8962 H   0  0
  1  2  1  0
  1 36  1  0
  1 37  1  0
  1 38  1  0
  2  3  1  0
  3  8  2  0
  3  4  1  0
  4  5  2  0
  4 39  1  0
  5  6  1  0
  5 11  1  0
  6  7  2  0
  6 10  1  0
  7  8  1  0
  7 40  1  0
  8  9  1  0
 11 12  1  0
 11 41  1  0
 12 21  2  0
 12 13  1  0
 13 18  2  0
 13 14  1  0
 14 15  2  0
 14 42  1  0
 15 16  1  0
 15 43  1  0
 16 17  2  0
 16 24  1  0
 17 18  1  0
 17 44  1  0
 18 19  1  0
 19 20  2  0
 20 21  1  0
 20 45  1  0
 21 22  1  0
 22 23  3  0
 24 25  2  0
 24 46  1  0
 25 26  1  0
 25 47  1  0
 26 35  2  0
 26 27  1  0
 27 28  2  0
 27 48  1  0
 28 29  1  0
 28 49  1  0
 29 34  2  0
 29 30  1  0
 30 31  2  0
 30 50  1  0
 31 32  1  0
 31 51  1  0
 32 33  2  0
 32 52  1  0
 33 34  1  0
 33 53  1  0
 34 35  1  0
 35 54  1  0
M  END
> <Name>
CHEMBL67878

$$$$
CHEMBL107423
  SciTegic01042614003D

 62 64  0  0  0  0            999 V2000
    0.1284    1.4492    0.2097 C   0  0
    0.0190   -0.0668    0.0349 C   0  0
    0.5762   -0.4508   -1.2689 N   0  3
    2.0192   -0.1759   -1.2850 C   0  0
    2.5730   -0.4396   -2.6866 C   0  0
    0.3482   -1.8842   -1.4959 C   0  0
   -1.1545   -2.1508   -1.6035 C   0  0
   -1.3919   -3.6437   -1.8399 C   0  0
   -2.8947   -3.9103   -1.9475 C   0  0
   -3.1321   -5.4032   -2.1839 C   0  0
   -4.5710   -5.6585   -2.2869 N   0  0
   -5.0328   -6.9486   -2.5027 C   0  0
   -4.1201   -7.9885   -2.6132 C   0  0
   -4.5935   -9.2770   -2.8288 C   0  0
   -5.9893   -9.4706   -2.9262 C   0  0
   -6.5083  -10.7686   -3.1459 C   0  0
   -5.6420  -11.8214   -3.2611 C   0  0
   -4.2002  -11.5859   -3.1553 C   0  0
   -3.4240  -12.5192   -3.2574 O   0  0
   -3.7290  -10.3410   -2.9458 N   0  0
   -2.2847  -10.1185   -2.8423 C   0  0
   -6.1589  -13.1906   -3.4909 C   0  0
   -6.4669  -14.0144   -2.4075 C   0  0
   -6.9489  -15.2897   -2.6287 C   0  0
   -7.1264  -15.7508   -3.9207 C   0  0
   -6.8231  -14.9393   -4.9991 C   0  0
   -6.3454  -13.6601   -4.7917 C   0  0
   -5.9715  -12.6409   -6.1464 Cl  0  0
   -6.2442  -13.4378   -0.7853 Cl  0  0
   -6.8389   -8.3648   -2.8027 C   0  0
   -6.3403   -7.1656   -2.5941 N   0  0
    1.1790    1.7329    0.2727 H   0  0
   -0.3320    1.9475   -0.6434 H   0  0
   -0.3838    1.7474    1.1245 H   0  0
    0.5754   -0.5652    0.8288 H   0  0
   -1.0286   -0.3635    0.0840 H   0  0
    2.1936    0.8657   -1.0153 H   0  0
    2.5208   -0.8258   -0.5679 H   0  0
    3.6177   -0.1312   -2.7284 H   0  0
    2.4989   -1.5034   -2.9124 H   0  0
    1.9971    0.1280   -3.4175 H   0  0
    0.8383   -2.1880   -2.4209 H   0  0
    0.7596   -2.4539   -0.6626 H   0  0
   -1.6446   -1.8469   -0.6785 H   0  0
   -1.5658   -1.5811   -2.4368 H   0  0
   -0.9019   -3.9475   -2.7649 H   0  0
   -0.9806   -4.2134   -1.0066 H   0  0
   -3.3848   -3.6064   -1.0225 H   0  0
   -3.3060   -3.3406   -2.7808 H   0  0
   -2.6420   -5.7070   -3.1089 H   0  0
   -2.7208   -5.9729   -1.3506 H   0  0
   -5.2008   -4.9254   -2.2043 H   0  0
   -3.0598   -7.7993   -2.5334 H   0  0
   -7.5741  -10.9262   -3.2214 H   0  0
   -1.9759  -10.2151   -1.8014 H   0  0
   -1.7590  -10.8573   -3.4472 H   0  0
   -2.0446   -9.1177   -3.2011 H   0  0
   -7.1873  -15.9284   -1.7911 H   0  0
   -7.5033  -16.7490   -4.0882 H   0  0
   -6.9637  -15.3055   -6.0053 H   0  0
   -7.9083   -8.4976   -2.8750 H   0  0
    0.1244    0.0811   -1.9976 H   0  0
  1  2  1  0
  1 32  1  0
  1 33  1  0
  1 34  1  0
  2  3  1  0
  2 35  1  0
  2 36  1  0
  3  4  1  0
  3  6  1  0
  3 62  1  0
  4  5  1  0
  4 37  1  0
  4 38  1  0
  5 39  1  0
  5 40  1  0
  5 41  1  0
  6  7  1  0
  6 42  1  0
  6 43  1  0
  7  8  1  0
  7 44  1  0
  7 45  1  0
  8  9  1  0
  8 46  1  0
  8 47  1  0
  9 10  1  0
  9 48  1  0
  9 49  1  0
 10 11  1  0
 10 50  1  0
 10 51  1  0
 11 12  1  0
 11 52  1  0
 12 31  2  0
 12 13  1  0
 13 14  2  0
 13 53  1  0
 14 20  1  0
 14 15  1  0
 15 16  1  0
 15 30  2  0
 16 17  2  0
 16 54  1  0
 17 18  1  0
 17 22  1  0
 18 19  2  0
 18 20  1  0
 20 21  1  0
 21 55  1  0
 21 56  1  0
 21 57  1  0
 22 27  2  0
 22 23  1  0
 23 24  2  0
 23 29  1  0
 24 25  1  0
 24 58  1  0
 25 26  2  0
 25 59  1  0
 26 27  1  0
 26 60  1  0
 27 28  1  0
 30 31  1  0
 30 61  1  0
M  CHG  1   3   1
M  END
> <Name>
CHEMBL107423

$$$$
CHEMBL195523
  SciTegic01042614003D

 59 63  0  0  0  0            999 V2000
   -6.8436   -0.8946   -4.7423 C   0  0
   -6.9823   -2.3173   -4.4034 N   0  3  2  0  0  0
   -7.4133   -2.4475   -3.0053 C   0  0
   -7.5761   -3.9288   -2.6574 C   0  0
   -6.2950   -4.6203   -2.8596 N   0  0
   -5.8385   -4.4774   -4.2494 C   0  0
   -5.6900   -2.9916   -4.5841 C   0  0
   -6.3956   -6.0362   -2.4815 C   0  0
   -5.0126   -6.6158   -2.3324 C   0  0
   -4.2160   -6.6712   -1.2195 C   0  0
   -2.9606   -7.2652   -1.3327 C   0  0
   -2.5756   -7.7624   -2.5285 C   0  0
   -3.9909   -7.4151   -3.5585 S   0  0
   -4.6765   -6.1142    0.0695 C   0  0
   -4.7579   -6.7305    1.2794 C   0  0
   -5.2261   -6.0225    2.3988 C   0  0
   -5.5850   -4.6783    2.1563 C   0  0
   -5.2562   -4.4643    0.4257 S   0  0
   -6.0624   -3.8553    3.1585 C   0  0
   -6.1851   -4.4007    4.4556 C   0  0
   -5.8159   -5.7389    4.6441 C   0  0
   -5.3691   -6.4798    3.6676 N   0  0
   -6.6718   -3.6094    5.5454 C   0  0
   -7.0579   -2.9817    6.4100 N   0  0
   -6.4090   -2.5374    2.8994 N   0  0
   -5.4207   -1.5489    2.8620 C   0  0
   -4.0958   -1.8810    3.1109 C   0  0
   -3.1189   -0.8991    3.0730 C   0  0
   -3.4663    0.4146    2.7865 C   0  0
   -4.7861    0.7443    2.5388 C   0  0
   -5.7627   -0.2337    2.5700 C   0  0
   -7.4177    0.1822    2.2509 Cl  0  0
   -2.2420    1.6445    2.7398 Cl  0  0
   -1.8210   -1.2216    3.3168 O   0  0
   -1.5172   -2.6080    3.4832 C   0  0
   -6.4542   -0.7988   -5.7558 H   0  0
   -7.8178   -0.4096   -4.6800 H   0  0
   -6.1560   -0.4198   -4.0424 H   0  0
   -6.6644   -2.0009   -2.3512 H   0  0
   -8.3659   -1.9356   -2.8695 H   0  0
   -7.8814   -4.0262   -1.6156 H   0  0
   -8.3347   -4.3725   -3.3021 H   0  0
   -4.8762   -4.9751   -4.3690 H   0  0
   -6.5685   -4.9302   -4.9203 H   0  0
   -5.3651   -2.8830   -5.6189 H   0  0
   -4.9500   -2.5422   -3.9220 H   0  0
   -6.9297   -6.1225   -1.5352 H   0  0
   -6.9366   -6.5813   -3.2550 H   0  0
   -2.3047   -7.3269   -0.4769 H   0  0
   -1.6488   -8.2500   -2.7927 H   0  0
   -4.4628   -7.7646    1.3795 H   0  0
   -5.9037   -6.1712    5.6299 H   0  0
   -7.3370   -2.3015    2.7443 H   0  0
   -3.8271   -2.9030    3.3339 H   0  0
   -5.0538    1.7667    2.3165 H   0  0
   -2.0892   -3.0073    4.3208 H   0  0
   -1.7788   -3.1490    2.5738 H   0  0
   -0.4519   -2.7252    3.6821 H   0  0
   -7.6701   -2.7412   -5.0078 H   0  0
  1  2  1  0
  1 36  1  0
  1 37  1  0
  1 38  1  0
  2  7  1  0
  2  3  1  0
  2 59  1  0
  3  4  1  0
  3 39  1  0
  3 40  1  0
  4  5  1  0
  4 41  1  0
  4 42  1  0
  5  6  1  0
  5  8  1  0
  6  7  1  0
  6 43  1  0
  6 44  1  0
  7 45  1  0
  7 46  1  0
  8  9  1  0
  8 47  1  0
  8 48  1  0
  9 13  1  0
  9 10  2  0
 10 11  1  0
 10 14  1  0
 11 12  2  0
 11 49  1  0
 12 13  1  0
 12 50  1  0
 14 18  1  0
 14 15  2  0
 15 16  1  0
 15 51  1  0
 16 22  2  0
 16 17  1  0
 17 18  1  0
 17 19  2  0
 19 20  1  0
 19 25  1  0
 20 21  2  0
 20 23  1  0
 21 22  1  0
 21 52  1  0
 23 24  3  0
 25 26  1  0
 25 53  1  0
 26 31  2  0
 26 27  1  0
 27 28  2  0
 27 54  1  0
 28 29  1  0
 28 34  1  0
 29 30  2  0
 29 33  1  0
 30 31  1  0
 30 55  1  0
 31 32  1  0
 34 35  1  0
 35 56  1  0
 35 57  1  0
 35 58  1  0
M  CHG  1   2   1
M  END
> <Name>
CHEMBL195523

$$$$
CHEMBL190188
  SciTegic01042614003D

 67 70  0  0  0  0            999 V2000
   -0.0187    1.5258    0.0104 C   0  0
    0.0021   -0.0041    0.0020 C   0  0
    0.6878   -0.4765   -1.2033 N   0  0
    0.8268   -1.7986   -1.4250 C   0  0
    0.3832   -2.5991   -0.6248 O   0  0
    1.4577   -2.2333   -2.5339 N   0  0
    1.6009   -3.5953   -2.7623 C   0  0
    2.2695   -4.0341   -3.9260 C   0  0
    2.4163   -5.3912   -4.1597 C   0  0
    1.8851   -6.2855   -3.2135 C   0  0
    1.9894   -7.6749   -3.3712 C   0  0
    1.4820   -8.4814   -2.4676 N   0  0
    0.8570   -8.0346   -1.3807 C   0  0
    0.7046   -6.6841   -1.1378 C   0  0
    1.2252   -5.7688   -2.0665 C   0  0
    1.1153   -4.4499   -1.8867 N   0  0
    0.3451   -8.9499   -0.4681 N   0  0
   -0.3459   -8.4774    0.7341 C   0  0
   -0.8070   -9.6782    1.5625 C   0  0
   -1.5287   -9.1847    2.8181 C   0  0
   -1.9715  -10.3377    3.6135 N   0  0
   -3.0041  -11.1035    2.9013 C   0  0
   -3.3943  -12.3259    3.7351 C   0  0
   -3.9005  -11.8861    5.0419 N   0  3  2  0  0  0
   -2.8500  -11.1440    5.7514 C   0  0
   -2.4553   -9.9118    4.9343 C   0  0
   -4.2918  -13.0590    5.8351 C   0  0
    2.8105   -3.0482   -4.8919 C   0  0
    4.1158   -2.5760   -4.7537 C   0  0
    4.6141   -1.6577   -5.6573 C   0  0
    3.8217   -1.2061   -6.6971 C   0  0
    2.5267   -1.6705   -6.8396 C   0  0
    2.0184   -2.5932   -5.9461 C   0  0
    0.3952   -3.1803   -6.1308 Cl  0  0
    5.1115   -3.1407   -3.4486 Cl  0  0
    1.0039    1.9031    0.0027 H   0  0
   -0.5459    1.8868   -0.8726 H   0  0
   -0.5289    1.8773    0.9072 H   0  0
    0.5293   -0.3651    0.8851 H   0  0
   -1.0205   -0.3814    0.0098 H   0  0
    1.0417    0.1622   -1.8418 H   0  0
    1.8116   -1.5946   -3.1724 H   0  0
    2.9233   -5.7518   -5.0424 H   0  0
    2.4879   -8.0828   -4.2381 H   0  0
    0.1950   -6.3384   -0.2505 H   0  0
    0.4454   -9.9015   -0.6274 H   0  0
    0.3341   -7.8662    1.3275 H   0  0
   -1.2116   -7.8815    0.4450 H   0  0
   -1.4871  -10.2894    0.9691 H   0  0
    0.0587  -10.2741    1.8516 H   0  0
   -0.8487   -8.5736    3.4115 H   0  0
   -2.3944   -8.5888    2.5291 H   0  0
   -3.8807  -10.4747    2.7456 H   0  0
   -2.6145  -11.4302    1.9372 H   0  0
   -4.1703  -12.8877    3.2152 H   0  0
   -2.5205  -12.9614    3.8791 H   0  0
   -3.2226  -10.8295    6.7262 H   0  0
   -1.9790  -11.7855    5.8850 H   0  0
   -1.6654   -9.3690    5.4534 H   0  0
   -3.3229   -9.2633    4.8121 H   0  0
   -3.4260  -13.7053    5.9795 H   0  0
   -4.6675  -12.7329    6.8050 H   0  0
   -5.0723  -13.6092    5.3095 H   0  0
    5.6246   -1.2913   -5.5514 H   0  0
    4.2158   -0.4876   -7.4006 H   0  0
    1.9128   -1.3138   -7.6535 H   0  0
   -4.7023  -11.2885    4.9080 H   0  0
  1  2  1  0
  1 36  1  0
  1 37  1  0
  1 38  1  0
  2  3  1  0
  2 39  1  0
  2 40  1  0
  3  4  1  0
  3 41  1  0
  4  5  2  0
  4  6  1  0
  6  7  1  0
  6 42  1  0
  7 16  2  0
  7  8  1  0
  8  9  2  0
  8 28  1  0
  9 10  1  0
  9 43  1  0
 10 15  2  0
 10 11  1  0
 11 12  2  0
 11 44  1  0
 12 13  1  0
 13 14  2  0
 13 17  1  0
 14 15  1  0
 14 45  1  0
 15 16  1  0
 17 18  1  0
 17 46  1  0
 18 19  1  0
 18 47  1  0
 18 48  1  0
 19 20  1  0
 19 49  1  0
 19 50  1  0
 20 21  1  0
 20 51  1  0
 20 52  1  0
 21 26  1  0
 21 22  1  0
 22 23  1  0
 22 53  1  0
 22 54  1  0
 23 24  1  0
 23 55  1  0
 23 56  1  0
 24 25  1  0
 24 27  1  0
 24 67  1  0
 25 26  1  0
 25 57  1  0
 25 58  1  0
 26 59  1  0
 26 60  1  0
 27 61  1  0
 27 62  1  0
 27 63  1  0
 28 33  2  0
 28 29  1  0
 29 30  2  0
 29 35  1  0
 30 31  1  0
 30 64  1  0
 31 32  2  0
 31 65  1  0
 32 33  1  0
 32 66  1  0
 33 34  1  0
M  CHG  1  24   1
M  END
> <Name>
CHEMBL190188

$$$$
CHEMBL60408
  SciTegic01042614003D

 57 61  0  0  0  0            999 V2000
   -2.0826   -2.9391   -2.6170 C   0  0
   -1.3787   -2.8502   -1.3766 O   0  0
   -1.8430   -1.9534   -0.4664 C   0  0
   -3.0172   -1.2598   -0.7135 C   0  0
   -3.4893   -0.3451    0.2177 C   0  0
   -2.7831   -0.1273    1.3955 C   0  0
   -1.6124   -0.8206    1.6381 C   0  0
   -1.1442   -1.7364    0.7134 C   0  0
    0.3227   -2.6108    1.0255 Cl  0  0
   -3.3720    1.0162    2.5614 Cl  0  0
   -4.6733    0.3567   -0.0287 N   0  0
   -4.6366    1.7204   -0.2355 C   0  0
   -5.7804    2.5252   -0.0134 C   0  0
   -6.9858    1.9626    0.4235 C   0  0
   -8.0833    2.7806    0.6304 C   0  0
   -7.9901    4.1620    0.4047 C   0  0
   -6.8270    4.7233   -0.0196 C   0  0
   -5.6946    3.9202   -0.2389 C   0  0
   -4.5433    4.4655   -0.6563 N   0  0
   -3.4710    3.7464   -0.8690 C   0  0
   -3.4637    2.3566   -0.6672 C   0  0
   -2.2730    1.5970   -0.9036 C   0  0
   -1.3285    0.9944   -1.0911 N   0  0
   -9.3647    2.1933    1.0928 C   0  0
  -10.4815    2.9969    1.3019 C   0  0
  -11.6319    2.4248    1.7232 C   0  0
  -11.1766    0.7033    1.8430 S   0  0
   -9.4770    0.8496    1.3178 C   0  0
  -12.9594    3.0748    2.0170 C   0  0
  -13.7766    3.0929    0.7964 N   0  0
  -13.1826    3.9708   -0.2223 C   0  0
  -14.0315    3.9138   -1.4951 C   0  0
  -15.3774    4.2818   -1.1813 O   0  0
  -15.9870    3.4472   -0.1928 C   0  0
  -15.1579    3.4995    1.0932 C   0  0
   -1.5704   -3.6402   -3.2760 H   0  0
   -3.0987   -3.2887   -2.4339 H   0  0
   -2.1157   -1.9563   -3.0873 H   0  0
   -3.5637   -1.4304   -1.6292 H   0  0
   -1.0645   -0.6499    2.5531 H   0  0
   -5.5204   -0.1151   -0.0541 H   0  0
   -7.0589    0.8992    0.5973 H   0  0
   -8.8545    4.7882    0.5698 H   0  0
   -6.7730    5.7886   -0.1887 H   0  0
   -2.5681    4.2342   -1.2054 H   0  0
  -10.4300    4.0620    1.1305 H   0  0
   -8.7303    0.0771    1.2078 H   0  0
  -13.4768    2.5099    2.7924 H   0  0
  -12.7957    4.0965    2.3598 H   0  0
  -13.1546    4.9945    0.1510 H   0  0
  -12.1695    3.6362   -0.4452 H   0  0
  -13.6275    4.6064   -2.2334 H   0  0
  -14.0156    2.9011   -1.8981 H   0  0
  -16.9972    3.8023    0.0108 H   0  0
  -16.0279    2.4210   -0.5579 H   0  0
  -15.5866    2.8208    1.8305 H   0  0
  -15.1614    4.5157    1.4875 H   0  0
  1  2  1  0
  1 36  1  0
  1 37  1  0
  1 38  1  0
  2  3  1  0
  3  8  2  0
  3  4  1  0
  4  5  2  0
  4 39  1  0
  5  6  1  0
  5 11  1  0
  6  7  2  0
  6 10  1  0
  7  8  1  0
  7 40  1  0
  8  9  1  0
 11 12  1  0
 11 41  1  0
 12 21  2  0
 12 13  1  0
 13 18  2  0
 13 14  1  0
 14 15  2  0
 14 42  1  0
 15 16  1  0
 15 24  1  0
 16 17  2  0
 16 43  1  0
 17 18  1  0
 17 44  1  0
 18 19  1  0
 19 20  2  0
 20 21  1  0
 20 45  1  0
 21 22  1  0
 22 23  3  0
 24 28  2  0
 24 25  1  0
 25 26  2  0
 25 46  1  0
 26 27  1  0
 26 29  1  0
 27 28  1  0
 28 47  1  0
 29 30  1  0
 29 48  1  0
 29 49  1  0
 30 35  1  0
 30 31  1  0
 31 32  1  0
 31 50  1  0
 31 51  1  0
 32 33  1  0
 32 52  1  0
 32 53  1  0
 33 34  1  0
 34 35  1  0
 34 54  1  0
 34 55  1  0
 35 56  1  0
 35 57  1  0
M  END
> <Name>
CHEMBL60408

$$$$
CHEMBL291297
  SciTegic01042614003D

 58 61  0  0  0  0            999 V2000
   -6.0453    0.9857    3.4079 C   0  0
   -5.8973   -0.4735    3.3257 N   0  3  2  0  0  0
   -6.4754   -1.0909    4.5253 C   0  0
   -6.3968   -2.6145    4.4078 C   0  0
   -4.9308   -3.0356    4.2711 C   0  0
   -4.3174   -2.3276    3.0596 C   0  0
   -4.4731   -0.8146    3.2270 C   0  0
   -4.8552   -4.4506    4.0866 O   0  0
   -3.7026   -5.0614    4.4660 C   0  0
   -2.6368   -4.3007    4.8906 C   0  0
   -1.4452   -4.9292    5.2829 C   0  0
   -1.3618   -6.3418    5.2341 C   0  0
   -2.4626   -7.0935    4.7979 C   0  0
   -3.6133   -6.4597    4.4262 C   0  0
   -4.6807   -7.1913    4.0085 O   0  0
   -4.5265   -8.6118    3.9907 C   0  0
   -0.1595   -6.9724    5.6302 C   0  0
    0.8990   -6.1553    6.0554 C   0  0
    0.7277   -4.7617    6.0716 C   0  0
   -0.3965   -4.2046    5.6999 N   0  0
    2.1407   -6.7365    6.4689 C   0  0
    3.1258   -7.1975    6.7969 N   0  0
   -0.0316   -8.3466    5.6000 N   0  0
   -0.2207   -9.0923    6.7677 C   0  0
   -0.5067   -8.4491    7.9644 C   0  0
   -0.6935   -9.1908    9.1197 C   0  0
   -0.5946  -10.5755    9.0789 C   0  0
   -0.3097  -11.2152    7.8865 C   0  0
   -0.1283  -10.4787    6.7307 C   0  0
    0.2215  -11.2854    5.2338 Cl  0  0
   -0.8282  -11.5043   10.5268 Cl  0  0
   -0.9732   -8.5634   10.2928 O   0  0
   -1.1657   -7.1483   10.2418 C   0  0
   -5.6222    1.4447    2.5144 H   0  0
   -7.1026    1.2401    3.4812 H   0  0
   -5.5208    1.3549    4.2892 H   0  0
   -5.9194   -0.7656    5.4046 H   0  0
   -7.5178   -0.7877    4.6230 H   0  0
   -6.8249   -3.0710    5.3003 H   0  0
   -6.9527   -2.9409    3.5289 H   0  0
   -4.3854   -2.7547    5.1721 H   0  0
   -3.2592   -2.5790    2.9884 H   0  0
   -4.8302   -2.6481    2.1527 H   0  0
   -4.0372   -0.3075    2.3662 H   0  0
   -3.9598   -0.4952    4.1340 H   0  0
   -2.7174   -3.2242    4.9213 H   0  0
   -2.4014   -8.1711    4.7594 H   0  0
   -5.4492   -9.0730    3.6383 H   0  0
   -3.7081   -8.8801    3.3226 H   0  0
   -4.3047   -8.9659    4.9974 H   0  0
    1.5434   -4.1344    6.3995 H   0  0
    0.1895   -8.7950    4.7687 H   0  0
   -0.5830   -7.3722    7.9948 H   0  0
   -0.2329  -12.2920    7.8574 H   0  0
   -0.2695   -6.6739    9.8422 H   0  0
   -2.0153   -6.9202    9.5982 H   0  0
   -1.3593   -6.7716   11.2461 H   0  0
   -6.3810   -0.8141    2.5083 H   0  0
  1  2  1  0
  1 34  1  0
  1 35  1  0
  1 36  1  0
  2  7  1  0
  2  3  1  0
  2 58  1  0
  3  4  1  0
  3 37  1  0
  3 38  1  0
  4  5  1  0
  4 39  1  0
  4 40  1  0
  5  6  1  0
  5  8  1  0
  5 41  1  0
  6  7  1  0
  6 42  1  0
  6 43  1  0
  7 44  1  0
  7 45  1  0
  8  9  1  0
  9 14  2  0
  9 10  1  0
 10 11  2  0
 10 46  1  0
 11 20  1  0
 11 12  1  0
 12 13  2  0
 12 17  1  0
 13 14  1  0
 13 47  1  0
 14 15  1  0
 15 16  1  0
 16 48  1  0
 16 49  1  0
 16 50  1  0
 17 18  2  0
 17 23  1  0
 18 19  1  0
 18 21  1  0
 19 20  2  0
 19 51  1  0
 21 22  3  0
 23 24  1  0
 23 52  1  0
 24 29  2  0
 24 25  1  0
 25 26  2  0
 25 53  1  0
 26 27  1  0
 26 32  1  0
 27 28  2  0
 27 31  1  0
 28 29  1  0
 28 54  1  0
 29 30  1  0
 32 33  1  0
 33 55  1  0
 33 56  1  0
 33 57  1  0
M  CHG  1   2   1
M  END
> <Name>
CHEMBL291297

$$$$
CHEMBL303529
  SciTegic01042614003D

 57 61  0  0  0  0            999 V2000
    3.7148   -4.6745   -2.0535 C   0  0
    2.2999   -4.5514   -1.8959 O   0  0
    1.7070   -3.4697   -2.4673 C   0  0
    2.4523   -2.6054   -3.2536 C   0  0
    1.8446   -1.5017   -3.8358 C   0  0
    0.4900   -1.2662   -3.6287 C   0  0
   -0.2500   -2.1304   -2.8440 C   0  0
    0.3535   -3.2337   -2.2680 C   0  0
   -0.5813   -4.3209   -1.2894 Cl  0  0
   -0.2718    0.1139   -4.3556 Cl  0  0
    2.5938   -0.6275   -4.6293 N   0  0
    2.7939    0.6754   -4.2208 C   0  0
    3.0469    1.7039   -5.1580 C   0  0
    3.1015    1.4305   -6.5334 C   0  0
    3.3458    2.4351   -7.4165 C   0  0
    3.5450    3.7496   -6.9673 C   0  0
    3.4965    4.0474   -5.6162 C   0  0
    3.2459    3.0256   -4.6900 C   0  0
    3.1937    3.2925   -3.3765 N   0  0
    2.9610    2.3604   -2.4880 C   0  0
    2.7474    1.0242   -2.8622 C   0  0
    2.4893    0.0267   -1.8676 C   0  0
    2.2846   -0.7645   -1.0786 N   0  0
    3.8104    4.8289   -7.9482 C   0  0
    3.0147    5.9706   -7.9837 C   0  0
    3.2881    6.9329   -8.8927 C   0  0
    4.7007    6.2561   -9.7479 S   0  0
    4.8462    4.7286   -8.8359 C   0  0
    5.8488    3.6159   -9.0025 C   0  0
    6.9767    3.8319   -8.0863 N   0  0
    7.8122    4.9552   -8.5350 C   0  0
    8.9380    5.1828   -7.5227 C   0  0
    9.6893    3.9751   -7.3732 O   0  0
    8.9067    2.8605   -6.9368 C   0  0
    7.7806    2.6093   -7.9431 C   0  0
    3.9522   -4.8126   -3.1084 H   0  0
    4.2013   -3.7706   -1.6869 H   0  0
    4.0703   -5.5342   -1.4855 H   0  0
    3.5045   -2.7902   -3.4127 H   0  0
   -1.3021   -1.9463   -2.6840 H   0  0
    2.9729   -0.9368   -5.4669 H   0  0
    2.9500    0.4225   -6.8903 H   0  0
    3.3872    2.2193   -8.4739 H   0  0
    3.6504    5.0614   -5.2778 H   0  0
    2.9288    2.6262   -1.4417 H   0  0
    2.1907    6.0857   -7.2951 H   0  0
    2.7808    7.8717   -9.0592 H   0  0
    5.3736    2.6617   -8.7752 H   0  0
    6.2123    3.6052  -10.0300 H   0  0
    8.2408    4.7233   -9.5100 H   0  0
    7.2023    5.8554   -8.6095 H   0  0
    9.5934    5.9773   -7.8798 H   0  0
    8.5109    5.4672   -6.5611 H   0  0
    9.5393    1.9754   -6.8701 H   0  0
    8.4786    3.0773   -5.9581 H   0  0
    7.1475    1.7972   -7.5856 H   0  0
    8.2086    2.3400   -8.9087 H   0  0
  1  2  1  0
  1 36  1  0
  1 37  1  0
  1 38  1  0
  2  3  1  0
  3  8  2  0
  3  4  1  0
  4  5  2  0
  4 39  1  0
  5  6  1  0
  5 11  1  0
  6  7  2  0
  6 10  1  0
  7  8  1  0
  7 40  1  0
  8  9  1  0
 11 12  1  0
 11 41  1  0
 12 21  2  0
 12 13  1  0
 13 18  2  0
 13 14  1  0
 14 15  2  0
 14 42  1  0
 15 16  1  0
 15 43  1  0
 16 17  2  0
 16 24  1  0
 17 18  1  0
 17 44  1  0
 18 19  1  0
 19 20  2  0
 20 21  1  0
 20 45  1  0
 21 22  1  0
 22 23  3  0
 24 28  2  0
 24 25  1  0
 25 26  2  0
 25 46  1  0
 26 27  1  0
 26 47  1  0
 27 28  1  0
 28 29  1  0
 29 30  1  0
 29 48  1  0
 29 49  1  0
 30 35  1  0
 30 31  1  0
 31 32  1  0
 31 50  1  0
 31 51  1  0
 32 33  1  0
 32 52  1  0
 32 53  1  0
 33 34  1  0
 34 35  1  0
 34 54  1  0
 34 55  1  0
 35 56  1  0
 35 57  1  0
M  END
> <Name>
CHEMBL303529

$$$$
CHEMBL1088372
  SciTegic01042614003D

 64 67  0  0  0  0            999 V2000
   -0.0511    1.6780    0.7334 C   0  0
    0.0144    0.2596    0.8941 O   0  0
   -1.1543   -0.4267    0.7983 C   0  0
   -2.3163    0.2458    0.5529 C   0  0
   -3.5252   -0.4580    0.4532 C   0  0
   -3.5420   -1.8660    0.6067 C   0  0
   -2.3404   -2.5420    0.8587 C   0  0
   -1.1566   -1.8273    0.9472 C   0  0
    0.1113   -2.5388    1.2058 C   0  0
    0.1149   -3.8580    1.3469 C   0  0
    1.4088   -4.5841    1.6108 C   0  0
    1.2714   -5.4256    2.8812 C   0  0
    2.5327   -6.1334    3.1384 N   0  3
    2.7852   -7.0901    2.0542 C   0  0
    4.1371   -7.7720    2.2750 C   0  0
    4.1167   -8.5114    3.6159 C   0  0
    3.7791   -7.5173    4.7308 C   0  0
    2.4405   -6.8448    4.4190 C   0  0
   -4.6969   -2.5424    0.5104 N   0  0
   -5.8350   -1.9418    0.2751 C   0  0
   -5.9119   -0.5492    0.1090 C   0  0
   -4.7416    0.2188    0.1989 C   0  0
   -4.7751    1.5900    0.0421 N   0  0
   -5.9659    2.2898    0.2602 C   0  0
   -6.6122    2.9094   -0.8009 C   0  0
   -7.7920    3.6020   -0.5814 C   0  0
   -8.3258    3.6754    0.6986 C   0  0
   -7.6813    3.0579    1.7547 C   0  0
   -6.5070    2.3611    1.5386 C   0  0
   -5.7041    1.5810    2.8654 Cl  0  0
   -9.8036    4.5438    0.9731 Cl  0  0
   -8.4265    4.2100   -1.6186 O   0  0
   -7.8855    3.9980   -2.9241 C   0  0
   -7.1722    0.0801   -0.1487 C   0  0
   -8.1719    0.5794   -0.3530 N   0  0
    0.9484    2.1014    0.8328 H   0  0
   -0.4492    1.9139   -0.2535 H   0  0
   -0.7024    2.1006    1.4985 H   0  0
   -2.3049    1.3194    0.4360 H   0  0
   -2.3364   -3.6153    0.9782 H   0  0
    1.0357   -1.9853    1.2801 H   0  0
   -0.8095   -4.4115    1.2727 H   0  0
    1.6390   -5.2347    0.7671 H   0  0
    2.2124   -3.8591    1.7404 H   0  0
    1.0413   -4.7750    3.7249 H   0  0
    0.4679   -6.1506    2.7516 H   0  0
    1.9967   -7.8425    2.0433 H   0  0
    2.7962   -6.5628    1.1003 H   0  0
    4.3218   -8.4832    1.4699 H   0  0
    4.9264   -7.0204    2.2858 H   0  0
    3.3618   -9.2972    3.5874 H   0  0
    5.0959   -8.9517    3.8043 H   0  0
    3.7080   -8.0465    5.6811 H   0  0
    4.5610   -6.7604    4.7926 H   0  0
    2.1970   -6.1365    5.2109 H   0  0
    1.6593   -7.6025    4.3577 H   0  0
   -6.7374   -2.5312    0.2066 H   0  0
   -3.9726    2.0680   -0.2193 H   0  0
   -6.1959    2.8519   -1.7958 H   0  0
   -8.0981    3.1167    2.7493 H   0  0
   -8.5324    4.4665   -3.6659 H   0  0
   -6.8899    4.4380   -2.9806 H   0  0
   -7.8217    2.9280   -3.1217 H   0  0
    3.2891   -5.4668    3.1789 H   0  0
  1  2  1  0
  1 36  1  0
  1 37  1  0
  1 38  1  0
  2  3  1  0
  3  8  2  0
  3  4  1  0
  4  5  2  0
  4 39  1  0
  5 22  1  0
  5  6  1  0
  6  7  2  0
  6 19  1  0
  7  8  1  0
  7 40  1  0
  8  9  1  0
  9 10  2  0
  9 41  1  0
 10 11  1  0
 10 42  1  0
 11 12  1  0
 11 43  1  0
 11 44  1  0
 12 13  1  0
 12 45  1  0
 12 46  1  0
 13 18  1  0
 13 14  1  0
 13 64  1  0
 14 15  1  0
 14 47  1  0
 14 48  1  0
 15 16  1  0
 15 49  1  0
 15 50  1  0
 16 17  1  0
 16 51  1  0
 16 52  1  0
 17 18  1  0
 17 53  1  0
 17 54  1  0
 18 55  1  0
 18 56  1  0
 19 20  2  0
 20 21  1  0
 20 57  1  0
 21 22  2  0
 21 34  1  0
 22 23  1  0
 23 24  1  0
 23 58  1  0
 24 29  2  0
 24 25  1  0
 25 26  2  0
 25 59  1  0
 26 27  1  0
 26 32  1  0
 27 28  2  0
 27 31  1  0
 28 29  1  0
 28 60  1  0
 29 30  1  0
 32 33  1  0
 33 61  1  0
 33 62  1  0
 33 63  1  0
 34 35  3  0
M  CHG  1  13   1
M  END
> <Name>
CHEMBL1088372

$$$$
CHEMBL106992
  SciTegic01042614003D

 55 59  0  0  0  0            999 V2000
   -0.0207    1.4684    0.0825 C   0  0
    0.0017    0.0063   -0.0067 N   0  0
   -1.1824   -0.6937   -0.0395 C   0  0
   -2.4059   -0.0362    0.0106 C   0  0
   -3.5725   -0.7872   -0.0259 C   0  0
   -3.5374   -2.1132   -0.1073 N   0  0
   -2.4066   -2.7825   -0.1574 C   0  0
   -1.1822   -2.1032   -0.1258 C   0  0
    0.0441   -2.8071   -0.1783 C   0  0
    1.2175   -2.1039   -0.1444 C   0  0
    1.1818   -0.6420   -0.0616 C   0  0
    2.2229   -0.0100   -0.0368 O   0  0
    2.5154   -2.8161   -0.1980 C   0  0
    3.1359   -3.2318    0.9808 C   0  0
    4.3459   -3.8953    0.9238 C   0  0
    4.9427   -4.1480   -0.2983 C   0  0
    4.3329   -3.7386   -1.4705 C   0  0
    3.1200   -3.0793   -1.4278 C   0  0
    2.3529   -2.5728   -2.9005 Cl  0  0
    2.3889   -2.9152    2.5155 Cl  0  0
   -4.7993   -0.1409    0.0241 N   0  0
   -5.9845   -0.8794   -0.0804 C   0  0
   -7.0773   -0.3472   -0.7521 C   0  0
   -8.2457   -1.0756   -0.8555 C   0  0
   -8.3281   -2.3404   -0.2880 C   0  0
   -7.2352   -2.8726    0.3837 C   0  0
   -6.0651   -2.1464    0.4826 C   0  0
   -9.5125   -3.0785   -0.3925 N   0  0
  -10.6335   -2.5992   -1.2164 C   0  0
  -11.0726   -3.7375   -2.1446 C   0  0
  -11.3133   -4.9127   -1.3670 O   0  0
  -10.1593   -5.4097   -0.6849 C   0  0
   -9.6713   -4.3599    0.3135 C   0  0
    1.0012    1.8475    0.0921 H   0  0
   -0.5516    1.8767   -0.7775 H   0  0
   -0.5283    1.7687    0.9991 H   0  0
   -2.4480    1.0409    0.0772 H   0  0
   -2.4220   -3.8604   -0.2229 H   0  0
    0.0539   -3.8851   -0.2440 H   0  0
    4.8273   -4.2173    1.8353 H   0  0
    5.8890   -4.6669   -0.3374 H   0  0
    4.8043   -3.9387   -2.4214 H   0  0
   -4.8360    0.8224    0.1314 H   0  0
   -7.0134    0.6365   -1.1931 H   0  0
   -9.0957   -0.6616   -1.3775 H   0  0
   -7.2993   -3.8561    0.8253 H   0  0
   -5.2137   -2.5621    1.0011 H   0  0
  -11.4642   -2.3090   -0.5731 H   0  0
  -10.3127   -1.7438   -1.8109 H   0  0
  -11.9869   -3.4513   -2.6644 H   0  0
  -10.2864   -3.9374   -2.8727 H   0  0
  -10.4166   -6.3265   -0.1546 H   0  0
   -9.3698   -5.6157   -1.4077 H   0  0
   -8.7136   -4.6698    0.7317 H   0  0
  -10.4035   -4.2499    1.1135 H   0  0
  1  2  1  0
  1 34  1  0
  1 35  1  0
  1 36  1  0
  2 11  1  0
  2  3  1  0
  3  8  2  0
  3  4  1  0
  4  5  2  0
  4 37  1  0
  5  6  1  0
  5 21  1  0
  6  7  2  0
  7  8  1  0
  7 38  1  0
  8  9  1  0
  9 10  2  0
  9 39  1  0
 10 11  1  0
 10 13  1  0
 11 12  2  0
 13 18  2  0
 13 14  1  0
 14 15  2  0
 14 20  1  0
 15 16  1  0
 15 40  1  0
 16 17  2  0
 16 41  1  0
 17 18  1  0
 17 42  1  0
 18 19  1  0
 21 22  1  0
 21 43  1  0
 22 27  2  0
 22 23  1  0
 23 24  2  0
 23 44  1  0
 24 25  1  0
 24 45  1  0
 25 26  2  0
 25 28  1  0
 26 27  1  0
 26 46  1  0
 27 47  1  0
 28 33  1  0
 28 29  1  0
 29 30  1  0
 29 48  1  0
 29 49  1  0
 30 31  1  0
 30 50  1  0
 30 51  1  0
 31 32  1  0
 32 33  1  0
 32 52  1  0
 32 53  1  0
 33 54  1  0
 33 55  1  0
M  END
> <Name>
CHEMBL106992

$$$$
CHEMBL325589
  SciTegic01042614003D

 40 43  0  0  0  0            999 V2000
   -0.0376    1.3942    0.6396 C   0  0
   -0.0089   -0.0407    0.3459 N   0  0
   -1.1848   -0.7126    0.1265 C   0  0
   -1.1747   -2.0954   -0.1581 C   0  0
    0.0492   -2.8000   -0.2194 C   0  0
    1.2176   -2.1212    0.0009 C   0  0
    1.1721   -0.6859    0.2887 C   0  0
    2.2072   -0.0734    0.4814 O   0  0
    2.5167   -2.8313   -0.0559 C   0  0
    3.0472   -3.4150    1.0952 C   0  0
    4.2587   -4.0754    1.0354 C   0  0
    4.9462   -4.1586   -0.1620 C   0  0
    4.4261   -3.5817   -1.3067 C   0  0
    3.2123   -2.9241   -1.2620 C   0  0
    2.5576   -2.2076   -2.7013 Cl  0  0
    2.1865   -3.3108    2.5993 Cl  0  0
   -2.3991   -2.7446   -0.3766 C   0  0
   -3.5107   -2.0364   -0.3073 N   0  0
   -3.4821   -0.7361   -0.0371 C   0  0
   -2.3518   -0.0802    0.1764 N   0  0
   -4.6756   -0.0424    0.0231 N   0  0
   -5.8893   -0.7290   -0.0813 C   0  0
   -6.0454   -1.9822    0.5068 C   0  0
   -7.2665   -2.6225    0.3763 C   0  0
   -8.2825   -2.0026   -0.3275 C   0  0
   -8.1027   -0.8156   -0.8729 N   0  0
   -6.9588   -0.1691   -0.7679 C   0  0
    0.9807    1.7570    0.7794 H   0  0
   -0.5018    1.9259   -0.1911 H   0  0
   -0.6131    1.5676    1.5489 H   0  0
    0.0624   -3.8579   -0.4364 H   0  0
    4.6704   -4.5276    1.9256 H   0  0
    5.8933   -4.6758   -0.2033 H   0  0
    4.9682   -3.6496   -2.2383 H   0  0
   -2.4312   -3.8013   -0.5973 H   0  0
   -4.6715    0.9207    0.1378 H   0  0
   -5.2342   -2.4431    1.0507 H   0  0
   -7.4232   -3.5952    0.8189 H   0  0
   -9.2366   -2.4976   -0.4322 H   0  0
   -6.8508    0.8039   -1.2241 H   0  0
  1  2  1  0
  1 28  1  0
  1 29  1  0
  1 30  1  0
  2  7  1  0
  2  3  1  0
  3 20  2  0
  3  4  1  0
  4  5  1  0
  4 17  2  0
  5  6  2  0
  5 31  1  0
  6  7  1  0
  6  9  1  0
  7  8  2  0
  9 14  2  0
  9 10  1  0
 10 11  2  0
 10 16  1  0
 11 12  1  0
 11 32  1  0
 12 13  2  0
 12 33  1  0
 13 14  1  0
 13 34  1  0
 14 15  1  0
 17 18  1  0
 17 35  1  0
 18 19  2  0
 19 20  1  0
 19 21  1  0
 21 22  1  0
 21 36  1  0
 22 27  2  0
 22 23  1  0
 23 24  2  0
 23 37  1  0
 24 25  1  0
 24 38  1  0
 25 26  2  0
 25 39  1  0
 26 27  1  0
 27 40  1  0
M  END
> <Name>
CHEMBL325589

$$$$
CHEMBL51283
  SciTegic01042614003D

 59 63  0  0  0  0            999 V2000
   -0.0332    1.3908    0.6136 C   0  0
   -0.0055   -0.0383    0.2926 N   0  0
   -1.1828   -0.7081    0.0740 C   0  0
   -1.1737   -2.0852   -0.2368 C   0  0
    0.0505   -2.7863   -0.3254 C   0  0
    1.2203   -2.1096   -0.1056 C   0  0
    1.1758   -0.6801    0.2096 C   0  0
    2.2120   -0.0694    0.4021 O   0  0
    2.5198   -2.8161   -0.1907 C   0  0
    3.0643   -3.4205    0.9431 C   0  0
    4.2759   -4.0779    0.8569 C   0  0
    4.9495   -4.1376   -0.3498 C   0  0
    4.4153   -3.5405   -1.4774 C   0  0
    3.2017   -2.8849   -1.4062 C   0  0
    2.5298   -2.1419   -2.8240 Cl  0  0
    2.2210   -3.3457    2.4586 Cl  0  0
   -2.3995   -2.7325   -0.4536 C   0  0
   -3.5114   -2.0279   -0.3583 N   0  0
   -3.4819   -0.7327   -0.0638 C   0  0
   -2.3501   -0.0788    0.1491 N   0  0
   -4.6753   -0.0428    0.0231 N   0  0
   -5.8911   -0.7305   -0.0815 C   0  0
   -6.0348   -1.9801    0.5070 C   0  0
   -7.2331   -2.6581    0.4039 C   0  0
   -8.2950   -2.0901   -0.2879 C   0  0
   -8.1514   -0.8402   -0.8760 C   0  0
   -6.9545   -0.1602   -0.7688 C   0  0
   -9.5094   -2.7774   -0.3928 N   0  0
  -10.6079   -2.2507   -1.2175 C   0  0
  -11.0981   -3.3678   -2.1445 C   0  0
  -11.4527   -4.5466   -1.3440 N   0  3  2  0  0  0
  -10.2556   -5.0797   -0.6815 C   0  0
   -9.7217   -4.0502    0.3135 C   0  0
  -12.0253   -5.5772   -2.2203 C   0  0
    0.9861    1.7527    0.7486 H   0  0
   -0.5077    1.9372   -0.2015 H   0  0
   -0.5985    1.5459    1.5325 H   0  0
    0.0629   -3.8399   -0.5625 H   0  0
    4.6984   -4.5461    1.7336 H   0  0
    5.8970   -4.6523   -0.4117 H   0  0
    4.9462   -3.5907   -2.4166 H   0  0
   -2.4324   -3.7849   -0.6938 H   0  0
   -4.6715    0.9180    0.1565 H   0  0
   -5.2090   -2.4218    1.0449 H   0  0
   -7.3446   -3.6303    0.8609 H   0  0
   -8.9771   -0.3984   -1.4140 H   0  0
   -6.8440    0.8134   -1.2229 H   0  0
  -11.4247   -1.9238   -0.5740 H   0  0
  -10.2487   -1.4115   -1.8132 H   0  0
  -11.9744   -3.0251   -2.6948 H   0  0
  -10.3072   -3.6302   -2.8472 H   0  0
  -10.5112   -5.9986   -0.1537 H   0  0
   -9.4903   -5.2904   -1.4285 H   0  0
   -8.7769   -4.4003    0.7295 H   0  0
  -10.4475   -3.9082    1.1142 H   0  0
  -11.2931   -5.8582   -2.9773 H   0  0
  -12.2890   -6.4529   -1.6272 H   0  0
  -12.9186   -5.1853   -2.7066 H   0  0
  -12.1335   -4.2855   -0.6465 H   0  0
  1  2  1  0
  1 35  1  0
  1 36  1  0
  1 37  1  0
  2  7  1  0
  2  3  1  0
  3 20  2  0
  3  4  1  0
  4  5  1  0
  4 17  2  0
  5  6  2  0
  5 38  1  0
  6  7  1  0
  6  9  1  0
  7  8  2  0
  9 14  2  0
  9 10  1  0
 10 11  2  0
 10 16  1  0
 11 12  1  0
 11 39  1  0
 12 13  2  0
 12 40  1  0
 13 14  1  0
 13 41  1  0
 14 15  1  0
 17 18  1  0
 17 42  1  0
 18 19  2  0
 19 20  1  0
 19 21  1  0
 21 22  1  0
 21 43  1  0
 22 27  2  0
 22 23  1  0
 23 24  2  0
 23 44  1  0
 24 25  1  0
 24 45  1  0
 25 26  2  0
 25 28  1  0
 26 27  1  0
 26 46  1  0
 27 47  1  0
 28 33  1  0
 28 29  1  0
 29 30  1  0
 29 48  1  0
 29 49  1  0
 30 31  1  0
 30 50  1  0
 30 51  1  0
 31 32  1  0
 31 34  1  0
 31 59  1  0
 32 33  1  0
 32 52  1  0
 32 53  1  0
 33 54  1  0
 33 55  1  0
 34 56  1  0
 34 57  1  0
 34 58  1  0
M  CHG  1  31   1
M  END
> <Name>
CHEMBL51283

$$$$
CHEMBL128241
  SciTegic01042614003D

 61 64  0  0  0  0            999 V2000
    5.9034    1.9018   -1.5757 C   0  0
    6.0705    0.4829   -1.6059 O   0  0
    5.1490   -0.2320   -2.3026 C   0  0
    4.1198    0.4226   -2.9405 C   0  0
    3.1667   -0.3136   -3.6607 C   0  0
    3.2829   -1.7236   -3.7175 C   0  0
    4.3415   -2.3658   -3.0588 C   0  0
    5.2597   -1.6277   -2.3687 C   0  0
    6.2878   -2.2528   -1.7352 O   0  0
    6.3450   -3.6768   -1.8405 C   0  0
    7.5601   -4.1967   -1.0697 C   0  0
    7.6214   -5.7213   -1.1824 C   0  0
    8.7880   -6.2206   -0.4424 N   0  0
   10.0404   -5.7793   -1.0733 C   0  0
   11.2265   -6.2700   -0.2389 C   0  0
   11.1567   -7.6927   -0.1109 O   0  0
    9.9501   -8.1573    0.5003 C   0  0
    8.7511   -7.6857   -0.3267 C   0  0
    2.3208   -2.4628   -4.4441 C   0  0
    1.2904   -1.7515   -5.0775 C   0  0
    1.2533   -0.3521   -4.9679 C   0  0
    2.1573    0.3069   -4.2891 N   0  0
    0.2875   -2.4453   -5.8281 C   0  0
   -0.5081   -2.9958   -6.4236 N   0  0
    2.3933   -3.8388   -4.5279 N   0  0
    3.2301   -4.4385   -5.4742 C   0  0
    4.0765   -3.6564   -6.2484 C   0  0
    4.9044   -4.2538   -7.1851 C   0  0
    4.8864   -5.6328   -7.3481 C   0  0
    4.0430   -6.4109   -6.5765 C   0  0
    3.2197   -5.8190   -5.6368 C   0  0
    2.1677   -6.7993   -4.6643 Cl  0  0
    5.9235   -6.3807   -8.5223 Cl  0  0
    5.7338   -3.4901   -7.9448 O   0  0
    5.7884   -2.0944   -7.6431 C   0  0
    5.9365    2.2933   -2.5924 H   0  0
    4.9416    2.1448   -1.1240 H   0  0
    6.7045    2.3496   -0.9877 H   0  0
    4.0459    1.4987   -2.8867 H   0  0
    4.4322   -3.4412   -3.1003 H   0  0
    5.4365   -4.1089   -1.4209 H   0  0
    6.4315   -3.9604   -2.8893 H   0  0
    8.4686   -3.7646   -1.4893 H   0  0
    7.4737   -3.9131   -0.0208 H   0  0
    6.7129   -6.1534   -0.7628 H   0  0
    7.7078   -6.0050   -2.2313 H   0  0
   10.1069   -6.1937   -2.0793 H   0  0
   10.0578   -4.6907   -1.1256 H   0  0
   12.1581   -5.9943   -0.7330 H   0  0
   11.1894   -5.8134    0.7502 H   0  0
    9.9585   -9.2465    0.5407 H   0  0
    9.8758   -7.7555    1.5109 H   0  0
    7.8273   -7.9887    0.1661 H   0  0
    8.7970   -8.1306   -1.3207 H   0  0
    0.4596    0.1938   -5.4563 H   0  0
    1.8638   -4.3897   -3.9304 H   0  0
    4.0894   -2.5840   -6.1209 H   0  0
    4.0305   -7.4831   -6.7053 H   0  0
    4.8093   -1.6470   -7.8146 H   0  0
    6.0719   -1.9591   -6.5994 H   0  0
    6.5256   -1.6125   -8.2853 H   0  0
  1  2  1  0
  1 36  1  0
  1 37  1  0
  1 38  1  0
  2  3  1  0
  3  8  2  0
  3  4  1  0
  4  5  2  0
  4 39  1  0
  5 22  1  0
  5  6  1  0
  6  7  2  0
  6 19  1  0
  7  8  1  0
  7 40  1  0
  8  9  1  0
  9 10  1  0
 10 11  1  0
 10 41  1  0
 10 42  1  0
 11 12  1  0
 11 43  1  0
 11 44  1  0
 12 13  1  0
 12 45  1  0
 12 46  1  0
 13 18  1  0
 13 14  1  0
 14 15  1  0
 14 47  1  0
 14 48  1  0
 15 16  1  0
 15 49  1  0
 15 50  1  0
 16 17  1  0
 17 18  1  0
 17 51  1  0
 17 52  1  0
 18 53  1  0
 18 54  1  0
 19 20  2  0
 19 25  1  0
 20 21  1  0
 20 23  1  0
 21 22  2  0
 21 55  1  0
 23 24  3  0
 25 26  1  0
 25 56  1  0
 26 31  2  0
 26 27  1  0
 27 28  2  0
 27 57  1  0
 28 29  1  0
 28 34  1  0
 29 30  2  0
 29 33  1  0
 30 31  1  0
 30 58  1  0
 31 32  1  0
 34 35  1  0
 35 59  1  0
 35 60  1  0
 35 61  1  0
M  END
> <Name>
CHEMBL128241

$$$$
CHEMBL67647
  SciTegic01042614003D

 49 52  0  0  0  0            999 V2000
   -2.0831   -2.9370   -2.6194 C   0  0
   -1.3788   -2.8489   -1.3792 O   0  0
   -1.8430   -1.9530   -0.4681 C   0  0
   -3.0173   -1.2593   -0.7143 C   0  0
   -3.4891   -0.3452    0.2174 C   0  0
   -2.7825   -0.1279    1.3951 C   0  0
   -1.6119   -0.8215    1.6371 C   0  0
   -1.1439   -1.7369    0.7117 C   0  0
    0.3231   -2.6113    1.0228 Cl  0  0
   -3.3706    1.0155    2.5615 Cl  0  0
   -4.6733    0.3567   -0.0281 N   0  0
   -4.6367    1.7201   -0.2353 C   0  0
   -5.7798    2.5247   -0.0134 C   0  0
   -6.9880    1.9649    0.4249 C   0  0
   -8.0691    2.7696    0.6289 C   0  0
   -7.9877    4.1415    0.4070 C   0  0
   -6.8286    4.7162   -0.0195 C   0  0
   -5.6937    3.9189   -0.2399 C   0  0
   -4.5433    4.4651   -0.6581 N   0  0
   -3.4710    3.7458   -0.8708 C   0  0
   -3.4638    2.3565   -0.6675 C   0  0
   -2.2731    1.5967   -0.9035 C   0  0
   -1.3285    0.9940   -1.0906 N   0  0
   -9.2009    5.0041    0.6416 C   0  0
   -9.2060    5.4937    2.0912 C   0  0
  -10.4191    6.3563    2.3258 C   0  0
  -10.3699    7.7247    2.1078 C   0  0
  -11.5025    8.4838    2.3338 C   0  0
  -12.6194    7.9210    2.7519 N   0  0
  -12.7026    6.6231    2.9696 C   0  0
  -11.6127    5.7997    2.7594 C   0  0
   -1.5697   -3.6358   -3.2799 H   0  0
   -3.0983   -3.2891   -2.4365 H   0  0
   -2.1185   -1.9535   -3.0879 H   0  0
   -3.5643   -1.4295   -1.6299 H   0  0
   -1.0638   -0.6515    2.5520 H   0  0
   -5.5205   -0.1150   -0.0526 H   0  0
   -7.0619    0.9017    0.5998 H   0  0
   -8.9998    2.3378    0.9663 H   0  0
   -6.7826    5.7820   -0.1876 H   0  0
   -2.5681    4.2334   -1.2075 H   0  0
   -9.1730    5.8612   -0.0312 H   0  0
  -10.1028    4.4222    0.4515 H   0  0
   -9.2339    4.6366    2.7640 H   0  0
   -8.3041    6.0756    2.2813 H   0  0
   -9.4579    8.1915    1.7661 H   0  0
  -11.4724    9.5503    2.1664 H   0  0
  -13.6345    6.1980    3.3123 H   0  0
  -11.6885    4.7367    2.9347 H   0  0
  1  2  1  0
  1 32  1  0
  1 33  1  0
  1 34  1  0
  2  3  1  0
  3  8  2  0
  3  4  1  0
  4  5  2  0
  4 35  1  0
  5  6  1  0
  5 11  1  0
  6  7  2  0
  6 10  1  0
  7  8  1  0
  7 36  1  0
  8  9  1  0
 11 12  1  0
 11 37  1  0
 12 21  2  0
 12 13  1  0
 13 18  2  0
 13 14  1  0
 14 15  2  0
 14 38  1  0
 15 16  1  0
 15 39  1  0
 16 17  2  0
 16 24  1  0
 17 18  1  0
 17 40  1  0
 18 19  1  0
 19 20  2  0
 20 21  1  0
 20 41  1  0
 21 22  1  0
 22 23  3  0
 24 25  1  0
 24 42  1  0
 24 43  1  0
 25 26  1  0
 25 44  1  0
 25 45  1  0
 26 31  2  0
 26 27  1  0
 27 28  2  0
 27 46  1  0
 28 29  1  0
 28 47  1  0
 29 30  2  0
 30 31  1  0
 30 48  1  0
 31 49  1  0
M  END
> <Name>
CHEMBL67647

$$$$
CHEMBL211613
  SciTegic01042614003D

 70 74  0  0  0  0            999 V2000
    4.1429  -15.4682   -1.4090 C   0  0
    5.0844  -15.6352   -0.2937 N   0  3  2  0  0  0
    4.8074  -16.9028    0.3948 C   0  0
    5.7999  -17.0862    1.5450 C   0  0
    5.6722  -15.9615    2.4825 N   0  0
    5.9224  -14.6833    1.8015 C   0  0
    4.9288  -14.5198    0.6492 C   0  0
    6.5707  -16.1301    3.6324 C   0  0
    6.2416  -15.1003    4.6823 C   0  0
    5.3912  -15.4335    5.7214 C   0  0
    5.0893  -14.4834    6.6874 C   0  0
    5.6541  -13.2255    6.5766 C   0  0
    6.5046  -12.9563    5.5013 C   0  0
    6.7716  -13.8977    4.6005 N   0  0
    7.0977  -11.6594    5.3714 C   0  0
    7.5840  -10.5961    5.2649 C   0  0
    8.1771   -9.2992    5.1350 C   0  0
    7.9076   -8.3200    6.0813 C   0  0
    8.4894   -7.0521    5.9523 C   0  0
    9.3456   -6.7912    4.8541 C   0  0
    9.6049   -7.7951    3.9095 C   0  0
    9.0357   -9.0271    4.0497 C   0  0
    9.2943   -9.9974    3.1347 O   0  0
   10.1721   -9.6579    2.0595 C   0  0
    9.9299   -5.5084    4.7299 C   0  0
    9.6271   -4.5529    5.7112 C   0  0
    8.7671   -4.8995    6.7664 C   0  0
    8.2405   -6.0933    6.8578 N   0  0
   10.1894   -3.2379    5.6383 C   0  0
   10.6354   -2.1948    5.5804 N   0  0
   10.7711   -5.2072    3.6774 N   0  0
   12.1217   -5.5639    3.7376 C   0  0
   12.5933   -6.3231    4.8001 C   0  0
   13.9323   -6.6748    4.8568 C   0  0
   14.7999   -6.2678    3.8517 C   0  0
   14.3292   -5.5117    2.7940 C   0  0
   12.9927   -5.1637    2.7310 C   0  0
   12.4036   -4.2204    1.3980 Cl  0  0
   16.4775   -6.7083    3.9236 Cl  0  0
   14.3967   -7.4178    5.8963 O   0  0
   13.4298   -7.9024    6.8303 C   0  0
    4.3491  -14.5282   -1.9208 H   0  0
    4.2582  -16.2959   -2.1088 H   0  0
    3.1230  -15.4566   -1.0248 H   0  0
    3.7918  -16.8871    0.7903 H   0  0
    4.9104  -17.7287   -0.3091 H   0  0
    5.5852  -18.0196    2.0653 H   0  0
    6.8148  -17.1157    1.1484 H   0  0
    5.7969  -13.8637    2.5090 H   0  0
    6.9393  -14.6732    1.4092 H   0  0
    5.1219  -13.5789    0.1338 H   0  0
    3.9126  -14.5162    1.0434 H   0  0
    6.4427  -17.1286    4.0502 H   0  0
    7.6035  -16.0014    3.3084 H   0  0
    4.9656  -16.4244    5.7804 H   0  0
    4.4278  -14.7210    7.5073 H   0  0
    5.4403  -12.4625    7.3104 H   0  0
    7.2524   -8.5343    6.9126 H   0  0
   10.2577   -7.5938    3.0730 H   0  0
   10.2932  -10.5198    1.4033 H   0  0
    9.7497   -8.8272    1.4941 H   0  0
   11.1430   -9.3676    2.4609 H   0  0
    8.5356   -4.1624    7.5211 H   0  0
   10.4251   -4.7482    2.8960 H   0  0
   11.9177   -6.6387    5.5813 H   0  0
   15.0058   -5.1963    2.0135 H   0  0
   12.9464   -7.0590    7.3234 H   0  0
   12.6806   -8.4937    6.3038 H   0  0
   13.9250   -8.5242    7.5761 H   0  0
    6.0285  -15.6455   -0.6495 H   0  0
  1  2  1  0
  1 42  1  0
  1 43  1  0
  1 44  1  0
  2  7  1  0
  2  3  1  0
  2 70  1  0
  3  4  1  0
  3 45  1  0
  3 46  1  0
  4  5  1  0
  4 47  1  0
  4 48  1  0
  5  6  1  0
  5  8  1  0
  6  7  1  0
  6 49  1  0
  6 50  1  0
  7 51  1  0
  7 52  1  0
  8  9  1  0
  8 53  1  0
  8 54  1  0
  9 14  2  0
  9 10  1  0
 10 11  2  0
 10 55  1  0
 11 12  1  0
 11 56  1  0
 12 13  2  0
 12 57  1  0
 13 14  1  0
 13 15  1  0
 15 16  3  0
 16 17  1  0
 17 22  2  0
 17 18  1  0
 18 19  2  0
 18 58  1  0
 19 28  1  0
 19 20  1  0
 20 21  2  0
 20 25  1  0
 21 22  1  0
 21 59  1  0
 22 23  1  0
 23 24  1  0
 24 60  1  0
 24 61  1  0
 24 62  1  0
 25 26  2  0
 25 31  1  0
 26 27  1  0
 26 29  1  0
 27 28  2  0
 27 63  1  0
 29 30  3  0
 31 32  1  0
 31 64  1  0
 32 37  2  0
 32 33  1  0
 33 34  2  0
 33 65  1  0
 34 35  1  0
 34 40  1  0
 35 36  2  0
 35 39  1  0
 36 37  1  0
 36 66  1  0
 37 38  1  0
 40 41  1  0
 41 67  1  0
 41 68  1  0
 41 69  1  0
M  CHG  1   2   1
M  END
> <Name>
CHEMBL211613

$$$$
CHEMBL104244
  SciTegic01042614003D

 61 64  0  0  0  0            999 V2000
   -0.0178    1.4608    0.0101 C   0  0
    0.0021   -0.0041    0.0020 N   0  0
   -1.1808   -0.6992    0.0039 C   0  0
   -1.1793   -2.1109   -0.0037 C   0  0
    0.0431   -2.8209   -0.0135 C   0  0
    1.2184   -2.1187   -0.0153 C   0  0
    1.1813   -0.6547   -0.0127 C   0  0
    2.2223   -0.0221   -0.0197 O   0  0
    2.5161   -2.8335   -0.0249 C   0  0
    3.1327   -3.1828    1.1772 C   0  0
    4.3424   -3.8490    1.1613 C   0  0
    4.9428   -4.1701   -0.0429 C   0  0
    4.3369   -3.8268   -1.2380 C   0  0
    3.1243   -3.1655   -1.2361 C   0  0
    2.3618   -2.7423   -2.7372 Cl  0  0
    2.3811   -2.7803    2.6894 Cl  0  0
   -2.4105   -2.7832   -0.0019 C   0  0
   -3.5204   -2.0689    0.0069 N   0  0
   -3.4836   -0.7410    0.0139 C   0  0
   -2.3465   -0.0625    0.0125 N   0  0
   -4.6746   -0.0428    0.0225 N   0  0
   -5.9482   -0.7668    0.0237 C   0  0
   -7.1044    0.2351    0.0338 C   0  0
   -8.4345   -0.5211    0.0350 C   0  0
   -9.5908    0.4809    0.0451 C   0  0
  -10.8678   -0.2451    0.0463 N   0  3
  -11.0082   -0.9904   -1.2116 C   0  0
  -12.3298   -1.7619   -1.2029 C   0  0
  -13.4444   -0.8168   -1.0463 N   0  0
  -13.3042   -0.0456    0.1969 C   0  0
  -11.9746    0.7117    0.1767 C   0  0
  -14.7363   -1.5145   -1.0901 C   0  0
    1.0048    1.8381    0.0023 H   0  0
   -0.5450    1.8219   -0.8730 H   0  0
   -0.5280    1.8123    0.9069 H   0  0
    0.0498   -3.9008   -0.0190 H   0  0
    4.8208   -4.1196    2.0909 H   0  0
    5.8889   -4.6908   -0.0499 H   0  0
    4.8111   -4.0800   -2.1748 H   0  0
   -2.4493   -3.8625   -0.0079 H   0  0
   -4.6681    0.9272    0.0277 H   0  0
   -6.0137   -1.3883   -0.8694 H   0  0
   -6.0065   -1.3979    0.9105 H   0  0
   -7.0389    0.8565    0.9269 H   0  0
   -7.0461    0.8662   -0.8531 H   0  0
   -8.5000   -1.1425   -0.8581 H   0  0
   -8.4928   -1.1521    0.9219 H   0  0
   -9.5253    1.1023    0.9382 H   0  0
   -9.5324    1.1119   -0.8417 H   0  0
  -10.9999   -0.2935   -2.0496 H   0  0
  -10.1793   -1.6909   -1.3133 H   0  0
  -12.4411   -2.3031   -2.1424 H   0  0
  -12.3329   -2.4686   -0.3730 H   0  0
  -14.1264    0.6653    0.2787 H   0  0
  -13.3233   -0.7240    1.0499 H   0  0
  -11.8621    1.2732    1.1042 H   0  0
  -11.9613    1.3999   -0.6685 H   0  0
  -14.7820   -2.2456   -0.2829 H   0  0
  -15.5438   -0.7919   -0.9719 H   0  0
  -14.8419   -2.0239   -2.0480 H   0  0
  -10.8874   -0.8895    0.8225 H   0  0
  1  2  1  0
  1 33  1  0
  1 34  1  0
  1 35  1  0
  2  7  1  0
  2  3  1  0
  3 20  2  0
  3  4  1  0
  4  5  1  0
  4 17  2  0
  5  6  2  0
  5 36  1  0
  6  7  1  0
  6  9  1  0
  7  8  2  0
  9 14  2  0
  9 10  1  0
 10 11  2  0
 10 16  1  0
 11 12  1  0
 11 37  1  0
 12 13  2  0
 12 38  1  0
 13 14  1  0
 13 39  1  0
 14 15  1  0
 17 18  1  0
 17 40  1  0
 18 19  2  0
 19 20  1  0
 19 21  1  0
 21 22  1  0
 21 41  1  0
 22 23  1  0
 22 42  1  0
 22 43  1  0
 23 24  1  0
 23 44  1  0
 23 45  1  0
 24 25  1  0
 24 46  1  0
 24 47  1  0
 25 26  1  0
 25 48  1  0
 25 49  1  0
 26 31  1  0
 26 27  1  0
 26 61  1  0
 27 28  1  0
 27 50  1  0
 27 51  1  0
 28 29  1  0
 28 52  1  0
 28 53  1  0
 29 30  1  0
 29 32  1  0
 30 31  1  0
 30 54  1  0
 30 55  1  0
 31 56  1  0
 31 57  1  0
 32 58  1  0
 32 59  1  0
 32 60  1  0
M  CHG  1  26   1
M  END
> <Name>
CHEMBL104244

$$$$
CHEMBL106232
  SciTegic01042614003D

 64 67  0  0  0  0            999 V2000
   -0.0178    1.4608    0.0101 C   0  0
    0.0021   -0.0041    0.0020 N   0  0
   -1.1808   -0.6992    0.0039 C   0  0
   -1.1793   -2.1109   -0.0037 C   0  0
    0.0431   -2.8209   -0.0135 C   0  0
    1.2184   -2.1187   -0.0153 C   0  0
    1.1813   -0.6547   -0.0127 C   0  0
    2.2223   -0.0221   -0.0197 O   0  0
    2.5161   -2.8335   -0.0249 C   0  0
    3.1327   -3.1828    1.1772 C   0  0
    4.3424   -3.8490    1.1613 C   0  0
    4.9428   -4.1701   -0.0429 C   0  0
    4.3369   -3.8268   -1.2380 C   0  0
    3.1243   -3.1655   -1.2361 C   0  0
    2.3618   -2.7423   -2.7372 Cl  0  0
    2.3811   -2.7803    2.6894 Cl  0  0
   -2.4105   -2.7832   -0.0019 C   0  0
   -3.5204   -2.0689    0.0069 N   0  0
   -3.4836   -0.7410    0.0139 C   0  0
   -2.3465   -0.0625    0.0125 N   0  0
   -4.6746   -0.0428    0.0225 N   0  0
   -5.9482   -0.7668    0.0237 C   0  0
   -7.1044    0.2351    0.0338 C   0  0
   -8.4345   -0.5211    0.0350 C   0  0
   -9.5908    0.4809    0.0451 C   0  0
  -10.9209   -0.2753    0.0464 C   0  0
  -12.0310    0.6867    0.0561 N   0  0
  -12.0628    1.4416    1.3167 C   0  0
  -13.1935    2.4713    1.2628 C   0  0
  -14.4736    1.7825    1.0521 N   0  3  2  0  0  0
  -14.4353    1.0532   -0.2223 C   0  0
  -13.3149    0.0117   -0.1807 C   0  0
  -15.5609    2.7698    1.0185 C   0  0
    1.0048    1.8381    0.0023 H   0  0
   -0.5450    1.8219   -0.8730 H   0  0
   -0.5280    1.8123    0.9069 H   0  0
    0.0498   -3.9008   -0.0190 H   0  0
    4.8208   -4.1196    2.0909 H   0  0
    5.8889   -4.6908   -0.0499 H   0  0
    4.8111   -4.0800   -2.1748 H   0  0
   -2.4493   -3.8625   -0.0079 H   0  0
   -4.6681    0.9272    0.0277 H   0  0
   -6.0137   -1.3883   -0.8694 H   0  0
   -6.0065   -1.3979    0.9105 H   0  0
   -7.0389    0.8565    0.9269 H   0  0
   -7.0461    0.8662   -0.8531 H   0  0
   -8.5000   -1.1425   -0.8581 H   0  0
   -8.4928   -1.1521    0.9219 H   0  0
   -9.5253    1.1023    0.9382 H   0  0
   -9.5324    1.1119   -0.8417 H   0  0
  -10.9864   -0.8967   -0.8467 H   0  0
  -10.9792   -0.9064    0.9332 H   0  0
  -12.2343    0.7563    2.1468 H   0  0
  -11.1110    1.9537    1.4581 H   0  0
  -13.2279    3.0227    2.2024 H   0  0
  -13.0145    3.1647    0.4410 H   0  0
  -15.3903    0.5532   -0.3836 H   0  0
  -14.2500    1.7539   -1.0364 H   0  0
  -13.2766   -0.5195   -1.1317 H   0  0
  -13.5071   -0.6972    0.6247 H   0  0
  -15.3881    3.4729    0.2037 H   0  0
  -16.5109    2.2589    0.8622 H   0  0
  -15.5903    3.3102    1.9646 H   0  0
  -14.6336    1.1322    1.8069 H   0  0
  1  2  1  0
  1 34  1  0
  1 35  1  0
  1 36  1  0
  2  7  1  0
  2  3  1  0
  3 20  2  0
  3  4  1  0
  4  5  1  0
  4 17  2  0
  5  6  2  0
  5 37  1  0
  6  7  1  0
  6  9  1  0
  7  8  2  0
  9 14  2  0
  9 10  1  0
 10 11  2  0
 10 16  1  0
 11 12  1  0
 11 38  1  0
 12 13  2  0
 12 39  1  0
 13 14  1  0
 13 40  1  0
 14 15  1  0
 17 18  1  0
 17 41  1  0
 18 19  2  0
 19 20  1  0
 19 21  1  0
 21 22  1  0
 21 42  1  0
 22 23  1  0
 22 43  1  0
 22 44  1  0
 23 24  1  0
 23 45  1  0
 23 46  1  0
 24 25  1  0
 24 47  1  0
 24 48  1  0
 25 26  1  0
 25 49  1  0
 25 50  1  0
 26 27  1  0
 26 51  1  0
 26 52  1  0
 27 32  1  0
 27 28  1  0
 28 29  1  0
 28 53  1  0
 28 54  1  0
 29 30  1  0
 29 55  1  0
 29 56  1  0
 30 31  1  0
 30 33  1  0
 30 64  1  0
 31 32  1  0
 31 57  1  0
 31 58  1  0
 32 59  1  0
 32 60  1  0
 33 61  1  0
 33 62  1  0
 33 63  1  0
M  CHG  1  30   1
M  END
> <Name>
CHEMBL106232

$$$$
CHEMBL569038
  SciTegic01042614003D

 59 63  0  0  0  0            999 V2000
   -3.9108   -2.4704    7.5519 C   0  0
   -4.5175   -1.5233    8.4333 O   0  0
   -5.2634   -0.5398    7.8636 C   0  0
   -5.4958   -0.5494    6.4973 C   0  0
   -6.2581    0.4556    5.9182 C   0  0
   -6.7864    1.4690    6.7102 C   0  0
   -6.5521    1.4755    8.0722 C   0  0
   -5.7974    0.4713    8.6511 C   0  0
   -5.5119    0.4788   10.3634 Cl  0  0
   -7.7401    2.7269    5.9878 Cl  0  0
   -6.4941    0.4492    4.5400 N   0  0
   -5.9874    1.4595    3.7486 C   0  0
   -6.8462    2.3393    3.0475 C   0  0
   -8.2404    2.2111    3.1364 C   0  0
   -9.0465    3.0682    2.4541 C   0  0
   -8.4983    4.0846    1.6576 C   0  0
   -7.1268    4.2337    1.5514 C   0  0
   -6.2785    3.3604    2.2480 C   0  0
   -4.9464    3.4881    2.1603 N   0  0
   -4.1295    2.6893    2.7979 C   0  0
   -4.6042    1.6522    3.6170 C   0  0
   -3.6857    0.7971    4.3069 C   0  0
   -2.9571    0.1188    4.8542 N   0  0
   -9.3969    5.0073    0.9221 C   0  0
  -10.4290    4.4906    0.1413 C   0  0
  -11.2597    5.3641   -0.5388 C   0  0
  -11.0307    6.7273   -0.4156 C   0  0
   -9.9878    7.1709    0.3766 C   0  0
   -9.2149    6.3179    1.0174 N   0  0
  -10.6374    3.0016    0.0385 C   0  0
  -12.0610    2.7211   -0.1907 N   0  0
  -12.8406    2.9118    1.0411 C   0  0
  -14.3224    2.6679    0.7437 C   0  0
  -14.4843    1.3558    0.1982 O   0  0
  -13.7394    1.1356   -1.0026 C   0  0
  -12.2516    1.3640   -0.7230 C   0  0
   -3.2824   -3.1509    8.1266 H   0  0
   -4.6869   -3.0384    7.0389 H   0  0
   -3.3003   -1.9445    6.8179 H   0  0
   -5.0841   -1.3374    5.8841 H   0  0
   -6.9625    2.2636    8.6861 H   0  0
   -7.0140   -0.2655    4.1403 H   0  0
   -8.6735    1.4319    3.7461 H   0  0
  -10.1192    2.9652    2.5260 H   0  0
   -6.7119    5.0180    0.9358 H   0  0
   -3.0642    2.8333    2.6943 H   0  0
  -12.0677    4.9932   -1.1519 H   0  0
  -11.6609    7.4350   -0.9338 H   0  0
   -9.8069    8.2311    0.4746 H   0  0
  -10.0514    2.6093   -0.7926 H   0  0
  -10.3178    2.5251    0.9653 H   0  0
  -12.5007    2.2067    1.7997 H   0  0
  -12.7050    3.9308    1.4035 H   0  0
  -14.8974    2.7521    1.6659 H   0  0
  -14.6759    3.4071    0.0249 H   0  0
  -13.8927    0.1117   -1.3435 H   0  0
  -14.0759    1.8303   -1.7722 H   0  0
  -11.6861    1.2532   -1.6482 H   0  0
  -11.9023    0.6342    0.0074 H   0  0
  1  2  1  0
  1 37  1  0
  1 38  1  0
  1 39  1  0
  2  3  1  0
  3  8  2  0
  3  4  1  0
  4  5  2  0
  4 40  1  0
  5  6  1  0
  5 11  1  0
  6  7  2  0
  6 10  1  0
  7  8  1  0
  7 41  1  0
  8  9  1  0
 11 12  1  0
 11 42  1  0
 12 21  2  0
 12 13  1  0
 13 18  2  0
 13 14  1  0
 14 15  2  0
 14 43  1  0
 15 16  1  0
 15 44  1  0
 16 17  2  0
 16 24  1  0
 17 18  1  0
 17 45  1  0
 18 19  1  0
 19 20  2  0
 20 21  1  0
 20 46  1  0
 21 22  1  0
 22 23  3  0
 24 29  2  0
 24 25  1  0
 25 26  2  0
 25 30  1  0
 26 27  1  0
 26 47  1  0
 27 28  2  0
 27 48  1  0
 28 29  1  0
 28 49  1  0
 30 31  1  0
 30 50  1  0
 30 51  1  0
 31 36  1  0
 31 32  1  0
 32 33  1  0
 32 52  1  0
 32 53  1  0
 33 34  1  0
 33 54  1  0
 33 55  1  0
 34 35  1  0
 35 36  1  0
 35 56  1  0
 35 57  1  0
 36 58  1  0
 36 59  1  0
M  END
> <Name>
CHEMBL569038

$$$$
CHEMBL436486
  SciTegic01042614003D

 71 75  0  0  0  0            999 V2000
    1.8277    0.9741    0.8939 C   0  0
    1.4737   -0.4879    0.8027 C   0  0
    2.4345   -1.4479    1.0599 C   0  0
    2.1138   -2.7895    0.9773 C   0  0
    0.8225   -3.1762    0.6349 C   0  0
   -0.1425   -2.2128    0.3765 C   0  0
    0.1825   -0.8682    0.4662 C   0  0
   -0.7622    0.0774    0.2195 O   0  0
   -2.0944   -0.3826   -0.0168 C   0  0
    0.4973   -4.5329    0.5506 N   0  0
    0.4467   -5.3017    1.6934 C   0  0
    0.6079   -6.7115    1.6380 C   0  0
    0.8227   -7.3600    0.4264 C   0  0
    0.9776   -8.7462    0.4060 C   0  0
    1.1974   -9.4358   -0.8051 C   0  0
    1.3450  -10.7887   -0.7909 C   0  0
    1.2838  -11.5211    0.4058 C   0  0
    1.0741  -10.9106    1.6048 C   0  0
    0.9137   -9.5106    1.6556 C   0  0
    0.6979   -8.8552    2.8688 C   0  0
    0.5435   -7.4718    2.8887 C   0  0
    0.3354   -6.8233    4.0494 N   0  0
    0.1874   -5.5266    4.0985 C   0  0
    0.2403   -4.7186    2.9505 C   0  0
    0.0781   -3.3004    3.0644 C   0  0
   -0.0506   -2.1754    3.1548 N   0  0
    1.4369  -12.8707    0.3662 O   0  0
    1.3660  -13.5684    1.6113 C   0  0
    1.5596  -15.0665    1.3682 C   0  0
    2.9155  -15.3085    0.8574 N   0  3
    3.0450  -16.7171    0.4656 C   0  0
    4.4287  -16.9563   -0.1423 C   0  0
    5.5021  -16.6124    0.8945 C   0  0  2  0  0  0
    5.3113  -15.1631    1.3508 C   0  0
    3.8948  -14.9904    1.9034 C   0  0
    6.7971  -16.7626    0.3093 O   0  0
    1.5562  -11.4460   -1.9619 O   0  0
    1.6094  -10.6540   -3.1501 C   0  0
    3.3230   -3.9924    1.3004 Cl  0  0
    1.6537    1.3274    1.9103 H   0  0
    2.8781    1.1103    0.6367 H   0  0
    1.2073    1.5421    0.2006 H   0  0
    3.4377   -1.1489    1.3256 H   0  0
   -1.1460   -2.5102    0.1100 H   0  0
   -2.4787   -0.8612    0.8840 H   0  0
   -2.7299    0.4635   -0.2781 H   0  0
   -2.0906   -1.1010   -0.8365 H   0  0
    0.3072   -4.9334   -0.3121 H   0  0
    0.8688   -6.7943   -0.4924 H   0  0
    1.2479   -8.8935   -1.7376 H   0  0
    1.0305  -11.4954    2.5117 H   0  0
    0.6510   -9.4191    3.7887 H   0  0
    0.0229   -5.0577    5.0574 H   0  0
    2.1486  -13.2042    2.2769 H   0  0
    0.3915  -13.3974    2.0687 H   0  0
    1.4222  -15.6073    2.3045 H   0  0
    0.8288  -15.4134    0.6376 H   0  0
    2.9198  -17.3509    1.3435 H   0  0
    2.2784  -16.9612   -0.2699 H   0  0
    4.5235  -18.0031   -0.4309 H   0  0
    4.5548  -16.3231   -1.0205 H   0  0
    5.4083  -17.2797    1.7512 H   0  0
    6.0369  -14.9282    2.1295 H   0  0
    5.4557  -14.4927    0.5036 H   0  0
    3.7557  -13.9596    2.2294 H   0  0
    3.7515  -15.6610    2.7507 H   0  0
    7.5265  -16.5605    0.9112 H   0  0
    0.6646  -10.1255   -3.2771 H   0  0
    2.4217   -9.9316   -3.0692 H   0  0
    1.7826  -11.3006   -4.0103 H   0  0
    3.0807  -14.7214    0.0536 H   0  0
  1  2  1  0
  1 40  1  0
  1 41  1  0
  1 42  1  0
  2  7  2  0
  2  3  1  0
  3  4  2  0
  3 43  1  0
  4  5  1  0
  4 39  1  0
  5  6  2  0
  5 10  1  0
  6  7  1  0
  6 44  1  0
  7  8  1  0
  8  9  1  0
  9 45  1  0
  9 46  1  0
  9 47  1  0
 10 11  1  0
 10 48  1  0
 11 24  2  0
 11 12  1  0
 12 21  2  0
 12 13  1  0
 13 14  2  0
 13 49  1  0
 14 19  1  0
 14 15  1  0
 15 16  2  0
 15 50  1  0
 16 17  1  0
 16 37  1  0
 17 18  2  0
 17 27  1  0
 18 19  1  0
 18 51  1  0
 19 20  2  0
 20 21  1  0
 20 52  1  0
 21 22  1  0
 22 23  2  0
 23 24  1  0
 23 53  1  0
 24 25  1  0
 25 26  3  0
 27 28  1  0
 28 29  1  0
 28 54  1  0
 28 55  1  0
 29 30  1  0
 29 56  1  0
 29 57  1  0
 30 35  1  0
 30 31  1  0
 30 71  1  0
 31 32  1  0
 31 58  1  0
 31 59  1  0
 32 33  1  0
 32 60  1  0
 32 61  1  0
 33 34  1  0
 33 36  1  0
 33 62  1  0
 34 35  1  0
 34 63  1  0
 34 64  1  0
 35 65  1  0
 35 66  1  0
 36 67  1  0
 37 38  1  0
 38 68  1  0
 38 69  1  0
 38 70  1  0
M  CHG  1  30   1
M  END
> <Name>
CHEMBL436486

$$$$
CHEMBL307769
  SciTegic01042614003D

 56 60  0  0  0  0            999 V2000
   -1.1471   -2.9603    3.1240 C   0  0
   -0.4265   -2.8565    1.8944 O   0  0
    0.5703   -1.9339    1.8391 C   0  0
    0.9247   -1.2273    2.9776 C   0  0
    1.9431   -0.2861    2.9186 C   0  0
    2.6049   -0.0548    1.7178 C   0  0
    2.2485   -0.7610    0.5846 C   0  0
    1.2376   -1.7032    0.6437 C   0  0
    0.7981   -2.5936   -0.7803 Cl  0  0
    3.8790    1.1220    1.6420 Cl  0  0
    2.3028    0.4288    4.0652 N   0  0
    2.0711    1.7877    4.1321 C   0  0
    2.8142    2.6129    5.0080 C   0  0
    3.8113    2.0730    5.8360 C   0  0
    4.5141    2.8826    6.6707 C   0  0
    4.2535    4.2642    6.7159 C   0  0
    3.2731    4.8233    5.9071 C   0  0
    2.5395    4.0020    5.0408 C   0  0
    1.5882    4.5218    4.2505 N   0  0
    0.8865    3.7816    3.4309 C   0  0
    1.0945    2.3966    3.3290 C   0  0
    0.3149    1.6129    2.4187 C   0  0
   -0.3036    0.9913    1.6966 N   0  0
    5.0046    5.1004    7.6032 C   0  0
    5.6204    5.7859    8.3307 C   0  0
    6.3715    6.6220    9.2180 C   0  0
    7.3642    6.0660   10.0318 C   0  0
    8.0849    6.8711   10.8838 C   0  0
    7.8257    8.2412   10.9368 C   0  0
    6.8359    8.7976   10.1258 C   0  0
    6.1173    7.9967    9.2680 C   0  0
    8.6027    9.1067   11.8562 C   0  0
    9.5960    8.5553   12.6642 C   0  0
   10.3160    9.3658   13.5180 C   0  0
   10.0533   10.7229   13.5735 C   0  0
    9.0685   11.2755   12.7745 C   0  0
    8.3467   10.4759   11.9119 C   0  0
   -1.5638   -1.9873    3.3842 H   0  0
   -1.9550   -3.6833    3.0118 H   0  0
   -0.4721   -3.2894    3.9141 H   0  0
    0.4090   -1.4084    3.9090 H   0  0
    2.7628   -0.5798   -0.3476 H   0  0
    2.7152   -0.0303    4.8135 H   0  0
    4.0195    1.0136    5.8097 H   0  0
    5.2797    2.4614    7.3055 H   0  0
    3.0772    5.8847    5.9455 H   0  0
    0.1313    4.2476    2.8153 H   0  0
    7.5646    5.0055    9.9916 H   0  0
    8.8515    6.4422   11.5123 H   0  0
    6.6365    9.8581   10.1684 H   0  0
    5.3546    8.4284    8.6369 H   0  0
    9.8015    7.4958   12.6222 H   0  0
   11.0857    8.9398   14.1444 H   0  0
   10.6190   11.3533   14.2436 H   0  0
    8.8675   12.3356   12.8223 H   0  0
    7.5814   10.9092   11.2850 H   0  0
  1  2  1  0
  1 38  1  0
  1 39  1  0
  1 40  1  0
  2  3  1  0
  3  8  2  0
  3  4  1  0
  4  5  2  0
  4 41  1  0
  5  6  1  0
  5 11  1  0
  6  7  2  0
  6 10  1  0
  7  8  1  0
  7 42  1  0
  8  9  1  0
 11 12  1  0
 11 43  1  0
 12 21  2  0
 12 13  1  0
 13 18  2  0
 13 14  1  0
 14 15  2  0
 14 44  1  0
 15 16  1  0
 15 45  1  0
 16 17  2  0
 16 24  1  0
 17 18  1  0
 17 46  1  0
 18 19  1  0
 19 20  2  0
 20 21  1  0
 20 47  1  0
 21 22  1  0
 22 23  3  0
 24 25  3  0
 25 26  1  0
 26 31  2  0
 26 27  1  0
 27 28  2  0
 27 48  1  0
 28 29  1  0
 28 49  1  0
 29 30  2  0
 29 32  1  0
 30 31  1  0
 30 50  1  0
 31 51  1  0
 32 37  2  0
 32 33  1  0
 33 34  2  0
 33 52  1  0
 34 35  1  0
 34 53  1  0
 35 36  2  0
 35 54  1  0
 36 37  1  0
 36 55  1  0
 37 56  1  0
M  END
> <Name>
CHEMBL307769

$$$$
CHEMBL57207
  SciTegic01042614003D

 69 72  0  0  0  0            999 V2000
   -0.0187    1.5258    0.0104 C   0  0
    0.0021   -0.0041    0.0020 C   0  0
    0.7421   -0.5109    1.2415 C   0  0
   -1.3723   -0.5112    0.0124 N   0  0
   -1.6432   -1.7342   -0.4849 C   0  0
   -0.7469   -2.4166   -0.9421 O   0  0
   -2.9076   -2.2007   -0.4753 N   0  0
   -3.1864   -3.4597   -0.9872 C   0  0
   -4.5167   -3.9305   -0.9747 C   0  0
   -4.7995   -5.1872   -1.4855 C   0  0
   -3.7337   -5.9443   -1.9990 C   0  0
   -3.9265   -7.2281   -2.5374 C   0  0
   -2.8789   -7.8791   -3.0011 N   0  0
   -1.6598   -7.3452   -2.9670 C   0  0
   -1.4205   -6.1453   -2.4732 N   0  0
   -2.4207   -5.4053   -1.9783 C   0  0
   -2.2042   -4.1869   -1.4791 N   0  0
   -0.6013   -8.0783   -3.4690 N   0  0
   -0.8332   -9.4141   -4.0239 C   0  0
    0.4937  -10.0032   -4.5067 C   0  0
    0.2515  -11.3984   -5.0862 C   0  0
    1.5256  -11.9640   -5.5498 N   0  0
    2.0550  -11.2042   -6.6910 C   0  0
    3.4081  -11.7871   -7.1045 C   0  0
    3.2417  -13.2000   -7.4698 N   0  3  2  0  0  0
    2.7357  -13.9504   -6.3129 C   0  0
    1.3770  -13.3854   -5.8928 C   0  0
    4.5375  -13.7544   -7.8840 C   0  0
   -5.6027   -3.0877   -0.4193 C   0  0
   -6.3011   -2.2095   -1.2479 C   0  0
   -7.3121   -1.4273   -0.7244 C   0  0
   -7.6324   -1.5136    0.6184 C   0  0
   -6.9433   -2.3821    1.4454 C   0  0
   -5.9340   -3.1738    0.9329 C   0  0
   -5.0751   -4.2684    1.9710 Cl  0  0
   -5.9002   -2.0994   -2.9334 Cl  0  0
    1.0039    1.9031    0.0027 H   0  0
   -0.5459    1.8868   -0.8726 H   0  0
   -0.5289    1.8773    0.9072 H   0  0
    0.5123   -0.3556   -0.8948 H   0  0
    0.7568   -1.6008    1.2356 H   0  0
    1.7647   -0.1336    1.2338 H   0  0
    0.2319   -0.1594    2.1383 H   0  0
   -2.0874    0.0333    0.3772 H   0  0
   -3.6227   -1.6562   -0.1105 H   0  0
   -5.8083   -5.5728   -1.4883 H   0  0
   -4.9109   -7.6712   -2.5699 H   0  0
    0.2953   -7.7083   -3.4540 H   0  0
   -1.2582  -10.0585   -3.2543 H   0  0
   -1.5261   -9.3440   -4.8624 H   0  0
    0.9188   -9.3589   -5.2763 H   0  0
    1.1866  -10.0734   -3.6682 H   0  0
   -0.1735  -12.0427   -4.3166 H   0  0
   -0.4413  -11.3282   -5.9248 H   0  0
    1.3591  -11.2717   -7.5272 H   0  0
    2.1809  -10.1597   -6.4056 H   0  0
    3.7959  -11.2339   -7.9599 H   0  0
    4.1077  -11.7070   -6.2725 H   0  0
    2.6250  -15.0010   -6.5814 H   0  0
    3.4388  -13.8591   -5.4850 H   0  0
    1.0082  -13.9323   -5.0251 H   0  0
    0.6699  -13.4889   -6.7159 H   0  0
    5.2473  -13.6730   -7.0607 H   0  0
    4.4142  -14.8029   -8.1551 H   0  0
    4.9125  -13.1985   -8.7433 H   0  0
   -7.8534   -0.7467   -1.3648 H   0  0
   -8.4237   -0.8999    1.0230 H   0  0
   -7.1978   -2.4446    2.4931 H   0  0
    2.5851  -13.2750   -8.2323 H   0  0
  1  2  1  0
  1 37  1  0
  1 38  1  0
  1 39  1  0
  2  3  1  0
  2  4  1  0
  2 40  1  0
  3 41  1  0
  3 42  1  0
  3 43  1  0
  4  5  1  0
  4 44  1  0
  5  6  2  0
  5  7  1  0
  7  8  1  0
  7 45  1  0
  8 17  2  0
  8  9  1  0
  9 10  2  0
  9 29  1  0
 10 11  1  0
 10 46  1  0
 11 16  2  0
 11 12  1  0
 12 13  2  0
 12 47  1  0
 13 14  1  0
 14 15  2  0
 14 18  1  0
 15 16  1  0
 16 17  1  0
 18 19  1  0
 18 48  1  0
 19 20  1  0
 19 49  1  0
 19 50  1  0
 20 21  1  0
 20 51  1  0
 20 52  1  0
 21 22  1  0
 21 53  1  0
 21 54  1  0
 22 27  1  0
 22 23  1  0
 23 24  1  0
 23 55  1  0
 23 56  1  0
 24 25  1  0
 24 57  1  0
 24 58  1  0
 25 26  1  0
 25 28  1  0
 25 69  1  0
 26 27  1  0
 26 59  1  0
 26 60  1  0
 27 61  1  0
 27 62  1  0
 28 63  1  0
 28 64  1  0
 28 65  1  0
 29 34  2  0
 29 30  1  0
 30 31  2  0
 30 36  1  0
 31 32  1  0
 31 66  1  0
 32 33  2  0
 32 67  1  0
 33 34  1  0
 33 68  1  0
 34 35  1  0
M  CHG  1  25   1
M  END
> <Name>
CHEMBL57207

$$$$
CHEMBL276934
  SciTegic01042614003D

 61 65  0  0  0  0            999 V2000
   -0.0513    1.6764    0.7344 C   0  0
    0.0139    0.2578    0.8941 O   0  0
   -1.1553   -0.4282    0.7975 C   0  0
   -2.3169    0.2449    0.5524 C   0  0
   -3.5258   -0.4591    0.4515 C   0  0
   -3.5415   -1.8671    0.6038 C   0  0
   -2.3387   -2.5419    0.8557 C   0  0
   -1.1576   -1.8273    0.9453 C   0  0
    0.1158   -2.5413    1.2052 C   0  0
    0.3768   -3.5331    2.2547 C   0  0
    1.6597   -3.9029    2.1048 C   0  0
    2.1901   -3.2315    1.0714 O   0  0
    1.2810   -2.4169    0.5170 C   0  0
    2.3859   -4.9093    2.9597 C   0  0
    2.2294   -6.2493    2.3785 N   0  0
    0.8288   -6.6913    2.4430 C   0  0
    0.7008   -8.0628    1.7747 C   0  0
    1.5892   -8.9836    2.4137 O   0  0
    2.9618   -8.5846    2.3690 C   0  0
    3.1127   -7.2184    3.0433 C   0  0
   -4.6957   -2.5444    0.5072 N   0  0
   -5.8344   -1.9444    0.2725 C   0  0
   -5.9123   -0.5519    0.1076 C   0  0
   -4.7422    0.2169    0.1975 C   0  0
   -4.7766    1.5883    0.0422 N   0  0
   -5.9681    2.2869    0.2602 C   0  0
   -6.6146    2.9065   -0.8008 C   0  0
   -7.7950    3.5980   -0.5814 C   0  0
   -8.3294    3.6702    0.6985 C   0  0
   -7.6847    3.0528    1.7545 C   0  0
   -6.5098    2.3571    1.5385 C   0  0
   -5.7070    1.5765    2.8651 Cl  0  0
   -9.8081    4.5372    0.9729 Cl  0  0
   -8.4297    4.2059   -1.6185 O   0  0
   -7.8881    3.9951   -2.9239 C   0  0
   -7.1731    0.0768   -0.1492 C   0  0
   -8.1732    0.5755   -0.3529 N   0  0
    0.9483    2.0995    0.8343 H   0  0
   -0.4491    1.9131   -0.2524 H   0  0
   -0.7026    2.0986    1.4996 H   0  0
   -2.3053    1.3186    0.4366 H   0  0
   -2.3336   -3.6153    0.9746 H   0  0
   -0.3206   -3.8927    2.9969 H   0  0
    1.4472   -1.7695   -0.3313 H   0  0
    3.4445   -4.6531    3.0025 H   0  0
    1.9687   -4.8990    3.9667 H   0  0
    0.5177   -6.7638    3.4852 H   0  0
    0.1959   -5.9724    1.9227 H   0  0
   -0.3245   -8.4201    1.8706 H   0  0
    0.9606   -7.9791    0.7195 H   0  0
    3.5717   -9.3193    2.8947 H   0  0
    3.2873   -8.5161    1.3310 H   0  0
    4.1469   -6.8842    2.9612 H   0  0
    2.8381   -7.2993    4.0951 H   0  0
   -6.7364   -2.5344    0.2036 H   0  0
   -3.9742    2.0672   -0.2181 H   0  0
   -6.1978    2.8499   -1.7955 H   0  0
   -8.1020    3.1106    2.7490 H   0  0
   -6.8927    4.4360   -2.9798 H   0  0
   -7.8232    2.9252   -3.1220 H   0  0
   -8.5350    4.4634   -3.6657 H   0  0
  1  2  1  0
  1 38  1  0
  1 39  1  0
  1 40  1  0
  2  3  1  0
  3  8  2  0
  3  4  1  0
  4  5  2  0
  4 41  1  0
  5 24  1  0
  5  6  1  0
  6  7  2  0
  6 21  1  0
  7  8  1  0
  7 42  1  0
  8  9  1  0
  9 13  2  0
  9 10  1  0
 10 11  2  0
 10 43  1  0
 11 12  1  0
 11 14  1  0
 12 13  1  0
 13 44  1  0
 14 15  1  0
 14 45  1  0
 14 46  1  0
 15 20  1  0
 15 16  1  0
 16 17  1  0
 16 47  1  0
 16 48  1  0
 17 18  1  0
 17 49  1  0
 17 50  1  0
 18 19  1  0
 19 20  1  0
 19 51  1  0
 19 52  1  0
 20 53  1  0
 20 54  1  0
 21 22  2  0
 22 23  1  0
 22 55  1  0
 23 24  2  0
 23 36  1  0
 24 25  1  0
 25 26  1  0
 25 56  1  0
 26 31  2  0
 26 27  1  0
 27 28  2  0
 27 57  1  0
 28 29  1  0
 28 34  1  0
 29 30  2  0
 29 33  1  0
 30 31  1  0
 30 58  1  0
 31 32  1  0
 34 35  1  0
 35 59  1  0
 35 60  1  0
 35 61  1  0
 36 37  3  0
M  END
> <Name>
CHEMBL276934

$$$$
CHEMBL219964
  SciTegic01042614003D

 57 60  0  0  0  0            999 V2000
    0.7939   -8.0211   -3.0569 C   0  0
    1.3622   -8.1276   -4.4074 N   0  3
    2.4905   -9.0681   -4.3910 C   0  0
    0.3323   -8.6145   -5.3349 C   0  0
   -0.7686   -7.5914   -5.4452 C   0  0
   -0.8156   -6.5893   -6.3389 C   0  0
   -2.0606   -5.8618   -6.0667 C   0  0
   -2.6448   -6.5075   -5.0234 C   0  0
   -1.8627   -7.5378   -4.6706 O   0  0
   -2.5748   -4.6690   -6.7820 C   0  0
   -1.7437   -3.5829   -6.9902 C   0  0
   -2.2301   -2.4556   -7.6669 C   0  0
   -3.5696   -2.4496   -8.1269 C   0  0
   -4.3936   -3.5627   -7.9046 C   0  0
   -3.9021   -4.6535   -7.2483 C   0  0
   -4.7024   -5.7319   -7.0395 O   0  0
   -6.0395   -5.6536   -7.5376 C   0  0
   -4.0554   -1.3096   -8.8092 C   0  0
   -3.1749   -0.2335   -8.9960 C   0  0
   -1.8621   -0.3262   -8.5058 C   0  0
   -1.4383   -1.3932   -7.8783 N   0  0
   -3.6101    0.9470   -9.6799 C   0  0
   -3.9553    1.8835  -10.2224 N   0  0
   -5.3536   -1.2579   -9.2763 N   0  0
   -5.6792   -1.8455  -10.5027 C   0  0
   -4.7276   -2.5823  -11.1948 C   0  0
   -5.0535   -3.1632  -12.4098 C   0  0
   -6.3305   -3.0077  -12.9329 C   0  0
   -7.2775   -2.2734  -12.2430 C   0  0
   -6.9578   -1.6975  -11.0275 C   0  0
   -8.1514   -0.7831  -10.1599 Cl  0  0
   -6.7383   -3.7358  -14.4552 Cl  0  0
   -4.1233   -3.8847  -13.0897 O   0  0
   -2.8700   -4.1044  -12.4392 C   0  0
    1.5581   -7.6598   -2.3687 H   0  0
   -0.0433   -7.3232   -3.0690 H   0  0
    0.4454   -9.0011   -2.7310 H   0  0
    2.1420  -10.0481   -4.0651 H   0  0
    2.9122   -9.1472   -5.3930 H   0  0
    3.2547   -8.7068   -3.7028 H   0  0
    0.7760   -8.7782   -6.3170 H   0  0
   -0.0792   -9.5522   -4.9613 H   0  0
   -0.0855   -6.3649   -7.1025 H   0  0
   -3.5823   -6.2387   -4.5596 H   0  0
   -0.7248   -3.6032   -6.6327 H   0  0
   -5.4150   -3.5578   -8.2555 H   0  0
   -6.5527   -4.8131   -7.0703 H   0  0
   -6.0170   -5.5103   -8.6179 H   0  0
   -6.5688   -6.5775   -7.3046 H   0  0
   -1.1857    0.5031   -8.6509 H   0  0
   -6.0397   -0.8139   -8.7539 H   0  0
   -3.7347   -2.7021  -10.7871 H   0  0
   -8.2697   -2.1533  -12.6522 H   0  0
   -2.3733   -3.1481  -12.2752 H   0  0
   -3.0392   -4.5950  -11.4807 H   0  0
   -2.2416   -4.7375  -13.0656 H   0  0
    1.6847   -7.2205   -4.7091 H   0  0
  1  2  1  0
  1 35  1  0
  1 36  1  0
  1 37  1  0
  2  3  1  0
  2  4  1  0
  2 57  1  0
  3 38  1  0
  3 39  1  0
  3 40  1  0
  4  5  1  0
  4 41  1  0
  4 42  1  0
  5  9  1  0
  5  6  2  0
  6  7  1  0
  6 43  1  0
  7  8  2  0
  7 10  1  0
  8  9  1  0
  8 44  1  0
 10 15  2  0
 10 11  1  0
 11 12  2  0
 11 45  1  0
 12 21  1  0
 12 13  1  0
 13 14  2  0
 13 18  1  0
 14 15  1  0
 14 46  1  0
 15 16  1  0
 16 17  1  0
 17 47  1  0
 17 48  1  0
 17 49  1  0
 18 19  2  0
 18 24  1  0
 19 20  1  0
 19 22  1  0
 20 21  2  0
 20 50  1  0
 22 23  3  0
 24 25  1  0
 24 51  1  0
 25 30  2  0
 25 26  1  0
 26 27  2  0
 26 52  1  0
 27 28  1  0
 27 33  1  0
 28 29  2  0
 28 32  1  0
 29 30  1  0
 29 53  1  0
 30 31  1  0
 33 34  1  0
 34 54  1  0
 34 55  1  0
 34 56  1  0
M  CHG  1   2   1
M  END
> <Name>
CHEMBL219964

$$$$
CHEMBL406661
  SciTegic01042614003D

 65 71  0  0  0  0            999 V2000
    0.5257   -1.1032   -2.8506 C   0  0
    0.2804   -1.2785   -1.4129 N   0  3  2  0  0  0
    1.1121   -2.3776   -0.9067 C   0  0
    0.9433   -2.4867    0.6123 C   0  0
   -0.4902   -2.6216    0.9138 N   0  0
   -1.4194   -1.6536    0.3107 C   0  0
   -1.1391   -1.5838   -1.1940 C   0  0
   -0.9567   -3.6414    1.7508 C   0  0
   -0.0786   -4.6081    2.2232 C   0  0
   -0.5389   -5.6143    3.0490 C   0  0
   -1.8799   -5.6598    3.4071 C   0  0
   -2.7580   -4.6935    2.9344 C   0  0
   -2.2966   -3.6836    2.1136 C   0  0
   -2.3468   -6.6807    4.2450 N   0  0
   -1.5380   -7.1736    5.2490 C   0  0
   -0.3700   -6.5842    5.4771 N   0  0
    0.4413   -7.0180    6.4273 C   0  0
    0.0424   -8.1151    7.1904 C   0  0
   -1.2036   -8.7158    6.9206 C   0  0
   -1.9580   -8.2156    5.9545 N   0  0
   -1.6058   -9.8037    7.6721 N   0  0
   -2.7553  -10.5787    7.6303 C   0  0
   -3.8988  -10.5584    6.8464 C   0  0
   -4.8922  -11.4922    7.0579 C   0  0
   -4.7543  -12.4513    8.0506 C   0  0
   -3.6257  -12.4855    8.8382 C   0  0
   -2.6096  -11.5471    8.6361 C   0  0
   -1.4106  -11.3273    9.2319 N   0  0
   -0.8106  -10.3000    8.6696 C   0  0
    0.4173   -9.7310    8.9571 N   0  0
    0.8753   -8.6674    8.2656 C   0  0
    1.9570   -8.1760    8.5274 O   0  0
    1.2002  -10.2702    9.9866 C   0  0
    1.0581   -9.8028   11.2872 C   0  0
    1.8318  -10.3373   12.3004 C   0  0
    2.7464  -11.3360   12.0207 C   0  0
    2.8908  -11.8033   10.7273 C   0  0
    2.1164  -11.2774    9.7101 C   0  0
    2.2935  -11.8698    8.0880 Cl  0  0
   -0.0894   -8.5486   11.6395 Cl  0  0
   -0.0852   -0.2823   -3.2260 H   0  0
    1.5792   -0.8765   -3.0144 H   0  0
    0.2652   -2.0208   -3.3782 H   0  0
    0.8034   -3.3123   -1.3747 H   0  0
    2.1578   -2.1807   -1.1430 H   0  0
    1.4786   -3.3629    0.9783 H   0  0
    1.3352   -1.5887    1.0899 H   0  0
   -2.4463   -1.9789    0.4773 H   0  0
   -1.2662   -0.6713    0.7578 H   0  0
   -1.7523   -0.8019   -1.6421 H   0  0
   -1.3797   -2.5425   -1.6534 H   0  0
    0.9642   -4.5730    1.9444 H   0  0
    0.1438   -6.3663    3.4162 H   0  0
   -3.8010   -4.7293    3.2124 H   0  0
   -2.9785   -2.9291    1.7501 H   0  0
   -3.2386   -7.0412    4.1196 H   0  0
    1.3900   -6.5345    6.6077 H   0  0
   -4.0118   -9.8135    6.0726 H   0  0
   -5.7828  -11.4761    6.4472 H   0  0
   -5.5388  -13.1769    8.2070 H   0  0
   -3.5258  -13.2348    9.6095 H   0  0
    1.7221   -9.9742   13.3116 H   0  0
    3.3495  -11.7518   12.8142 H   0  0
    3.6066  -12.5829   10.5123 H   0  0
    0.5191   -0.4276   -0.9260 H   0  0
  1  2  1  0
  1 41  1  0
  1 42  1  0
  1 43  1  0
  2  7  1  0
  2  3  1  0
  2 65  1  0
  3  4  1  0
  3 44  1  0
  3 45  1  0
  4  5  1  0
  4 46  1  0
  4 47  1  0
  5  6  1  0
  5  8  1  0
  6  7  1  0
  6 48  1  0
  6 49  1  0
  7 50  1  0
  7 51  1  0
  8 13  2  0
  8  9  1  0
  9 10  2  0
  9 52  1  0
 10 11  1  0
 10 53  1  0
 11 12  2  0
 11 14  1  0
 12 13  1  0
 12 54  1  0
 13 55  1  0
 14 15  1  0
 14 56  1  0
 15 20  2  0
 15 16  1  0
 16 17  2  0
 17 18  1  0
 17 57  1  0
 18 31  1  0
 18 19  2  0
 19 20  1  0
 19 21  1  0
 21 29  1  0
 21 22  1  0
 22 27  2  0
 22 23  1  0
 23 24  2  0
 23 58  1  0
 24 25  1  0
 24 59  1  0
 25 26  2  0
 25 60  1  0
 26 27  1  0
 26 61  1  0
 27 28  1  0
 28 29  2  0
 29 30  1  0
 30 31  1  0
 30 33  1  0
 31 32  2  0
 33 38  2  0
 33 34  1  0
 34 35  2  0
 34 40  1  0
 35 36  1  0
 35 62  1  0
 36 37  2  0
 36 63  1  0
 37 38  1  0
 37 64  1  0
 38 39  1  0
M  CHG  1   2   1
M  END
> <Name>
CHEMBL406661

$$$$
CHEMBL368189
  SciTegic01042614003D

 68 72  0  0  0  0            999 V2000
   -0.0178    1.4648    0.0101 C   0  0
    0.0021   -0.0041    0.0020 N   0  3  2  0  0  0
   -1.3761   -0.5122    0.0107 C   0  0
   -1.3560   -2.0421   -0.0167 C   0  0
   -0.6244   -2.5407    1.1564 N   0  0
    0.7499   -2.0201    1.1745 C   0  0
    0.7125   -0.4904    1.1921 C   0  0
   -0.6316   -4.0091    1.1963 C   0  0
   -0.0856   -4.4853    2.5439 C   0  0
   -0.0931   -6.0148    2.5855 C   0  0
    0.4297   -6.4708    3.8758 N   0  0
    0.5190   -7.8231    4.1463 C   0  0
    0.1275   -8.6879    3.2131 N   0  0
    0.1892   -9.9890    3.4135 C   0  0
    0.6815  -10.4550    4.6442 C   0  0
    0.7787  -11.8266    4.9332 C   0  0
    1.2760  -12.1957    6.1721 C   0  0
    1.6636  -11.1954    7.0908 C   0  0
    1.5627   -9.9147    6.7960 N   0  0
    1.0903   -9.5056    5.6170 C   0  0
    0.9939   -8.2043    5.3169 N   0  0
    2.1591  -11.5678    8.3265 N   0  5
    2.6188  -10.4098    9.4174 S   0  0
    3.7458   -9.7493    8.8579 O   0  0
    1.4379   -9.7148    9.7938 O   0  0
    3.1903  -11.2485   10.8577 C   0  0
    2.3041  -11.5659   11.8700 C   0  0
    2.7524  -12.2239   13.0000 C   0  0
    4.0869  -12.5649   13.1175 C   0  0
    4.9729  -12.2483   12.1048 C   0  0
    4.5238  -11.5941   10.9729 C   0  0
    1.4002  -13.6288    6.5309 C   0  0
    0.3390  -14.2905    7.1490 C   0  0
    0.4608  -15.6259    7.4804 C   0  0
    1.6317  -16.3069    7.2007 C   0  0
    2.6877  -15.6564    6.5884 C   0  0
    2.5764  -14.3226    6.2468 C   0  0
    3.9000  -13.5099    5.4714 Cl  0  0
   -1.1312  -13.4373    7.5014 Cl  0  0
    1.0047    1.8421    0.0024 H   0  0
   -0.5450    1.8259   -0.8730 H   0  0
   -0.5280    1.8163    0.9069 H   0  0
   -1.8832   -0.1716    0.9134 H   0  0
   -1.9060   -0.1400   -0.8661 H   0  0
   -2.3783   -2.4196    0.0047 H   0  0
   -0.8610   -2.3831   -0.9260 H   0  0
    1.2641   -2.3816    2.0650 H   0  0
    1.2796   -2.3607    0.2848 H   0  0
    1.7310   -0.1020    1.1912 H   0  0
    0.1947   -0.1499    2.0888 H   0  0
   -1.6519   -4.3710    1.0694 H   0  0
   -0.0057   -4.3975    0.3929 H   0  0
    0.9347   -4.1235    2.6709 H   0  0
   -0.7115   -4.0969    3.3473 H   0  0
   -1.1134   -6.3766    2.4585 H   0  0
    0.5328   -6.4032    1.7821 H   0  0
    0.7132   -5.8235    4.5404 H   0  0
   -0.1316  -10.6814    2.6492 H   0  0
    0.4745  -12.5704    4.2116 H   0  0
    1.2615  -11.2995   11.7782 H   0  0
    2.0602  -12.4712   13.7912 H   0  0
    4.4373  -13.0783   14.0006 H   0  0
    6.0156  -12.5144   12.1967 H   0  0
    5.2153  -11.3500   10.1800 H   0  0
   -0.3599  -16.1392    7.9593 H   0  0
    1.7220  -17.3510    7.4618 H   0  0
    3.5995  -16.1936    6.3730 H   0  0
    0.4748   -0.3293   -0.8280 H   0  0
  1  2  1  0
  1 40  1  0
  1 41  1  0
  1 42  1  0
  2  7  1  0
  2  3  1  0
  2 68  1  0
  3  4  1  0
  3 43  1  0
  3 44  1  0
  4  5  1  0
  4 45  1  0
  4 46  1  0
  5  6  1  0
  5  8  1  0
  6  7  1  0
  6 47  1  0
  6 48  1  0
  7 49  1  0
  7 50  1  0
  8  9  1  0
  8 51  1  0
  8 52  1  0
  9 10  1  0
  9 53  1  0
  9 54  1  0
 10 11  1  0
 10 55  1  0
 10 56  1  0
 11 12  1  0
 11 57  1  0
 12 21  2  0
 12 13  1  0
 13 14  2  0
 14 15  1  0
 14 58  1  0
 15 20  2  0
 15 16  1  0
 16 17  2  0
 16 59  1  0
 17 18  1  0
 17 32  1  0
 18 19  2  0
 18 22  1  0
 19 20  1  0
 20 21  1  0
 22 23  1  0
 23 24  2  0
 23 25  2  0
 23 26  1  0
 26 31  2  0
 26 27  1  0
 27 28  2  0
 27 60  1  0
 28 29  1  0
 28 61  1  0
 29 30  2  0
 29 62  1  0
 30 31  1  0
 30 63  1  0
 31 64  1  0
 32 37  2  0
 32 33  1  0
 33 34  2  0
 33 39  1  0
 34 35  1  0
 34 65  1  0
 35 36  2  0
 35 66  1  0
 36 37  1  0
 36 67  1  0
 37 38  1  0
M  CHG  2   2   1  22  -1
M  END
> <Name>
CHEMBL368189

$$$$
CHEMBL1086679
  SciTegic01042614003D

 57 60  0  0  0  0            999 V2000
    3.3579   -2.8759   -0.5515 C   0  0
    1.9305   -2.8092   -0.5606 O   0  0
    1.3602   -1.9046   -1.4000 C   0  0
    2.1501   -1.1808   -2.2792 C   0  0
    1.5653   -0.2581   -3.1355 C   0  0
    0.1890   -0.0625   -3.1089 C   0  0
   -0.5954   -0.7858   -2.2304 C   0  0
   -0.0142   -1.7096   -1.3807 C   0  0
   -1.0039   -2.6212   -0.2838 Cl  0  0
   -0.5443    1.0911   -4.1790 Cl  0  0
    2.3594    0.4741   -4.0235 N   0  0
    2.4990    1.8367   -3.8611 C   0  0
    2.8657    2.6694   -4.9465 C   0  0
    3.0983    2.1356   -6.2192 C   0  0
    3.4553    2.9816   -7.2581 C   0  0
    3.5826    4.3626   -7.0356 C   0  0
    3.3602    4.8942   -5.8051 C   0  0
    2.9963    4.0628   -4.7314 C   0  0
    2.7748    4.5799   -3.5150 N   0  0
    2.4353    3.8346   -2.4942 C   0  0
    2.2767    2.4449   -2.6168 C   0  0
    1.8979    1.6566   -1.4830 C   0  0
    1.5973    1.0313   -0.5835 N   0  0
    3.7035    2.4277   -8.6052 C   0  0
    4.0451    3.2341   -9.6011 C   0  0
    4.2982    2.6693  -10.9751 C   0  0
    3.4092    3.3865  -11.9930 C   0  0
    3.6560    2.8359  -13.3324 N   0  0
    5.0188    3.1474  -13.7873 C   0  0
    5.2528    2.5059  -15.1575 C   0  0
    4.2570    2.9713  -16.0725 O   0  0
    2.9178    2.6842  -15.6609 C   0  0
    2.6601    3.3275  -14.2958 C   0  0
    3.7128   -3.2005   -1.5296 H   0  0
    3.7662   -1.8908   -0.3254 H   0  0
    3.6836   -3.5871    0.2076 H   0  0
    3.2190   -1.3342   -2.2979 H   0  0
   -1.6643   -0.6326   -2.2105 H   0  0
    2.8121    0.0238   -4.7536 H   0  0
    3.0009    1.0738   -6.3905 H   0  0
    3.8614    5.0106   -7.8534 H   0  0
    3.4633    5.9582   -5.6514 H   0  0
    2.2681    4.3008   -1.5345 H   0  0
    3.6066    1.3662   -8.7789 H   0  0
    4.1420    4.2957   -9.4274 H   0  0
    5.3453    2.8150  -11.2406 H   0  0
    4.0675    1.6040  -10.9781 H   0  0
    2.3622    3.2408  -11.7275 H   0  0
    3.6400    4.4518  -11.9900 H   0  0
    5.1381    4.2280  -13.8661 H   0  0
    5.7404    2.7521  -13.0723 H   0  0
    6.2415    2.7816  -15.5244 H   0  0
    5.1864    1.4216  -15.0679 H   0  0
    2.2177    3.0888  -16.3919 H   0  0
    2.7835    1.6051  -15.5859 H   0  0
    1.6600    3.0636  -13.9520 H   0  0
    2.7418    4.4109  -14.3827 H   0  0
  1  2  1  0
  1 34  1  0
  1 35  1  0
  1 36  1  0
  2  3  1  0
  3  8  2  0
  3  4  1  0
  4  5  2  0
  4 37  1  0
  5  6  1  0
  5 11  1  0
  6  7  2  0
  6 10  1  0
  7  8  1  0
  7 38  1  0
  8  9  1  0
 11 12  1  0
 11 39  1  0
 12 21  2  0
 12 13  1  0
 13 18  2  0
 13 14  1  0
 14 15  2  0
 14 40  1  0
 15 16  1  0
 15 24  1  0
 16 17  2  0
 16 41  1  0
 17 18  1  0
 17 42  1  0
 18 19  1  0
 19 20  2  0
 20 21  1  0
 20 43  1  0
 21 22  1  0
 22 23  3  0
 24 25  2  0
 24 44  1  0
 25 26  1  0
 25 45  1  0
 26 27  1  0
 26 46  1  0
 26 47  1  0
 27 28  1  0
 27 48  1  0
 27 49  1  0
 28 33  1  0
 28 29  1  0
 29 30  1  0
 29 50  1  0
 29 51  1  0
 30 31  1  0
 30 52  1  0
 30 53  1  0
 31 32  1  0
 32 33  1  0
 32 54  1  0
 32 55  1  0
 33 56  1  0
 33 57  1  0
M  END
> <Name>
CHEMBL1086679

$$$$
CHEMBL108333
  SciTegic01042614003D

 62 65  0  0  0  0            999 V2000
   -0.0178    1.4608    0.0101 C   0  0
    0.0021   -0.0041    0.0020 N   0  0
   -1.1832   -0.7026    0.0039 C   0  0
   -2.4056   -0.0412    0.0132 C   0  0
   -3.5734   -0.7908    0.0143 C   0  0
   -3.5407   -2.1192    0.0065 N   0  0
   -2.4109   -2.7924   -0.0026 C   0  0
   -1.1855   -2.1147   -0.0043 C   0  0
    0.0397   -2.8227   -0.0135 C   0  0
    1.2142   -2.1207   -0.0144 C   0  0
    1.1810   -0.6564   -0.0127 C   0  0
    2.2233   -0.0259   -0.0189 O   0  0
    2.5110   -2.8371   -0.0239 C   0  0
    3.1266   -3.1880    1.1783 C   0  0
    4.3355   -3.8557    1.1624 C   0  0
    4.9362   -4.1763   -0.0417 C   0  0
    4.3313   -3.8315   -1.2369 C   0  0
    3.1193   -3.1691   -1.2351 C   0  0
    2.3582   -2.7435   -2.7362 Cl  0  0
    2.3749   -2.7855    2.6904 Cl  0  0
   -4.7988   -0.1407    0.0241 N   0  0
   -4.8513    1.3233    0.0332 C   0  0
   -6.3112    1.7812    0.0430 C   0  0
   -6.3660    3.3102    0.0525 C   0  0
   -7.8258    3.7681    0.0622 C   0  0
   -7.8785    5.2362    0.0714 N   0  3
   -7.3035    5.7386    1.3262 C   0  0
   -7.3409    7.2684    1.3281 C   0  0
   -8.7322    7.7217    1.1905 N   0  0
   -9.3292    7.2057   -0.0494 C   0  0
   -9.2753    5.6764   -0.0400 C   0  0
   -8.8162    9.1873    1.2451 C   0  0
    1.0048    1.8381    0.0023 H   0  0
   -0.5450    1.8219   -0.8730 H   0  0
   -0.5280    1.8123    0.9069 H   0  0
   -2.4459    1.0381    0.0200 H   0  0
   -2.4284   -3.8722   -0.0087 H   0  0
    0.0476   -3.9026   -0.0194 H   0  0
    4.8130   -4.1278    2.0921 H   0  0
    5.8819   -4.6979   -0.0486 H   0  0
    4.8055   -4.0847   -2.1736 H   0  0
   -5.6209   -0.6556    0.0249 H   0  0
   -4.3466    1.6994    0.9231 H   0  0
   -4.3551    1.7102   -0.8568 H   0  0
   -6.8159    1.4051   -0.8469 H   0  0
   -6.8074    1.3943    0.9330 H   0  0
   -5.8613    3.6863    0.9424 H   0  0
   -5.8698    3.6971   -0.8375 H   0  0
   -8.3305    3.3920   -0.8276 H   0  0
   -8.3220    3.3812    0.9523 H   0  0
   -7.8825    5.3600    2.1684 H   0  0
   -6.2710    5.4003    1.4138 H   0  0
   -6.9279    7.6411    2.2654 H   0  0
   -6.7507    7.6477    0.4939 H   0  0
  -10.3668    7.5327   -0.1170 H   0  0
   -8.7717    7.5839   -0.9063 H   0  0
   -9.7048    5.2920   -0.9651 H   0  0
   -9.8443    5.2981    0.8093 H   0  0
   -8.2273    9.6154    0.4338 H   0  0
   -9.8564    9.4957    1.1409 H   0  0
   -8.4271    9.5382    2.2009 H   0  0
   -7.3493    5.5963   -0.7086 H   0  0
  1  2  1  0
  1 33  1  0
  1 34  1  0
  1 35  1  0
  2 11  1  0
  2  3  1  0
  3  8  2  0
  3  4  1  0
  4  5  2  0
  4 36  1  0
  5  6  1  0
  5 21  1  0
  6  7  2  0
  7  8  1  0
  7 37  1  0
  8  9  1  0
  9 10  2  0
  9 38  1  0
 10 11  1  0
 10 13  1  0
 11 12  2  0
 13 18  2  0
 13 14  1  0
 14 15  2  0
 14 20  1  0
 15 16  1  0
 15 39  1  0
 16 17  2  0
 16 40  1  0
 17 18  1  0
 17 41  1  0
 18 19  1  0
 21 22  1  0
 21 42  1  0
 22 23  1  0
 22 43  1  0
 22 44  1  0
 23 24  1  0
 23 45  1  0
 23 46  1  0
 24 25  1  0
 24 47  1  0
 24 48  1  0
 25 26  1  0
 25 49  1  0
 25 50  1  0
 26 31  1  0
 26 27  1  0
 26 62  1  0
 27 28  1  0
 27 51  1  0
 27 52  1  0
 28 29  1  0
 28 53  1  0
 28 54  1  0
 29 30  1  0
 29 32  1  0
 30 31  1  0
 30 55  1  0
 30 56  1  0
 31 57  1  0
 31 58  1  0
 32 59  1  0
 32 60  1  0
 32 61  1  0
M  CHG  1  26   1
M  END
> <Name>
CHEMBL108333

$$$$
CHEMBL104414
  SciTegic01042614003D

 60 64  0  0  0  0            999 V2000
   -3.4525   -4.9992   -0.0824 C   0  0
   -2.2284   -4.1983   -0.0037 N   0  0
   -2.3126   -2.8256    0.0389 C   0  0
   -3.5436   -2.1812    0.0085 C   0  0
   -3.5757   -0.7944    0.0543 C   0  0
   -2.4571   -0.0802    0.1260 N   0  0
   -1.2683   -0.6413    0.1574 C   0  0
   -1.1444   -2.0357    0.1153 C   0  0
    0.1267   -2.6564    0.1477 C   0  0
    0.2021   -4.0220    0.1041 C   0  0
   -1.0293   -4.8119    0.0320 C   0  0
   -0.9689   -6.0282   -0.0013 O   0  0
    1.5203   -4.6974    0.1367 C   0  0
    2.1973   -4.9704   -1.0526 C   0  0
    3.4259   -5.6003   -1.0152 C   0  0
    3.9853   -5.9604    0.1975 C   0  0
    3.3194   -5.6927    1.3800 C   0  0
    2.0929   -5.0582    1.3570 C   0  0
    1.2621   -4.7166    2.8426 Cl  0  0
    1.4967   -4.5198   -2.5757 Cl  0  0
   -4.7993   -0.1409    0.0241 N   0  0
   -4.8512    1.2538    0.1385 C   0  0
   -5.8963    1.8556    0.8272 C   0  0
   -5.9472    3.2307    0.9404 C   0  0
   -4.9534    4.0121    0.3656 C   0  0
   -3.9083    3.4103   -0.3232 C   0  0
   -3.8546    2.0349   -0.4319 C   0  0
   -5.0053    5.4059    0.4799 N   0  0
   -4.0461    6.2599   -0.2375 C   0  0
   -4.8276    7.3406   -0.9920 C   0  0
   -5.6959    8.0612   -0.0524 N   0  3  2  0  0  0
   -6.7091    7.1488    0.4926 C   0  0
   -6.0244    6.0588    1.3161 C   0  0
   -6.3619    9.1671   -0.7535 C   0  0
   -3.1934   -6.0578   -0.1021 H   0  0
   -4.0773   -4.7942    0.7869 H   0  0
   -3.9975   -4.7416   -0.9905 H   0  0
   -4.4598   -2.7500   -0.0500 H   0  0
   -0.3838   -0.0243    0.2155 H   0  0
    1.0254   -2.0603    0.2058 H   0  0
    3.9508   -5.8125   -1.9349 H   0  0
    4.9461   -6.4531    0.2212 H   0  0
    3.7615   -5.9768    2.3236 H   0  0
   -5.6188   -0.6501   -0.0763 H   0  0
   -6.6694    1.2480    1.2739 H   0  0
   -6.7601    3.6987    1.4757 H   0  0
   -3.1356    4.0179   -0.7705 H   0  0
   -3.0395    1.5666   -0.9637 H   0  0
   -3.3682    6.7288    0.4758 H   0  0
   -3.4775    5.6573   -0.9458 H   0  0
   -4.1293    8.0403   -1.4513 H   0  0
   -5.4373    6.8746   -1.7660 H   0  0
   -7.3973    7.7071    1.1272 H   0  0
   -7.2619    6.6886   -0.3264 H   0  0
   -6.7631    5.3233    1.6345 H   0  0
   -5.5497    6.5071    2.1890 H   0  0
   -6.9619    8.7694   -1.5720 H   0  0
   -7.0068    9.7029   -0.0571 H   0  0
   -5.6109    9.8494   -1.1517 H   0  0
   -5.1383    8.4320    0.7023 H   0  0
  1  2  1  0
  1 35  1  0
  1 36  1  0
  1 37  1  0
  2 11  1  0
  2  3  1  0
  3  8  2  0
  3  4  1  0
  4  5  2  0
  4 38  1  0
  5  6  1  0
  5 21  1  0
  6  7  2  0
  7  8  1  0
  7 39  1  0
  8  9  1  0
  9 10  2  0
  9 40  1  0
 10 11  1  0
 10 13  1  0
 11 12  2  0
 13 18  2  0
 13 14  1  0
 14 15  2  0
 14 20  1  0
 15 16  1  0
 15 41  1  0
 16 17  2  0
 16 42  1  0
 17 18  1  0
 17 43  1  0
 18 19  1  0
 21 22  1  0
 21 44  1  0
 22 27  2  0
 22 23  1  0
 23 24  2  0
 23 45  1  0
 24 25  1  0
 24 46  1  0
 25 26  2  0
 25 28  1  0
 26 27  1  0
 26 47  1  0
 27 48  1  0
 28 33  1  0
 28 29  1  0
 29 30  1  0
 29 49  1  0
 29 50  1  0
 30 31  1  0
 30 51  1  0
 30 52  1  0
 31 32  1  0
 31 34  1  0
 31 60  1  0
 32 33  1  0
 32 53  1  0
 32 54  1  0
 33 55  1  0
 33 56  1  0
 34 57  1  0
 34 58  1  0
 34 59  1  0
M  CHG  1  31   1
M  END
> <Name>
CHEMBL104414

$$$$
CHEMBL108332
  SciTegic01042614003D

 65 68  0  0  0  0            999 V2000
   -0.0178    1.4608    0.0101 C   0  0
    0.0021   -0.0041    0.0020 N   0  0
   -1.1832   -0.7026    0.0039 C   0  0
   -2.4056   -0.0412    0.0132 C   0  0
   -3.5734   -0.7908    0.0143 C   0  0
   -3.5407   -2.1192    0.0065 N   0  0
   -2.4109   -2.7924   -0.0026 C   0  0
   -1.1855   -2.1147   -0.0043 C   0  0
    0.0397   -2.8227   -0.0135 C   0  0
    1.2142   -2.1207   -0.0144 C   0  0
    1.1810   -0.6564   -0.0127 C   0  0
    2.2233   -0.0259   -0.0189 O   0  0
    2.5110   -2.8371   -0.0239 C   0  0
    3.1266   -3.1880    1.1783 C   0  0
    4.3355   -3.8557    1.1624 C   0  0
    4.9362   -4.1763   -0.0417 C   0  0
    4.3313   -3.8315   -1.2369 C   0  0
    3.1193   -3.1691   -1.2351 C   0  0
    2.3582   -2.7435   -2.7362 Cl  0  0
    2.3749   -2.7855    2.6904 Cl  0  0
   -4.7988   -0.1407    0.0241 N   0  0
   -4.8513    1.3233    0.0332 C   0  0
   -6.3112    1.7812    0.0430 C   0  0
   -6.3660    3.3102    0.0525 C   0  0
   -7.8258    3.7681    0.0622 C   0  0
   -7.8806    5.2971    0.0718 C   0  0
   -9.2823    5.7368    0.0811 N   0  0
   -9.9559    5.3758   -1.1743 C   0  0
  -11.4252    5.7970   -1.1006 C   0  0
  -11.5087    7.2467   -0.8793 N   0  3  2  0  0  0
  -10.8533    7.5885    0.3899 C   0  0
   -9.3792    7.1823    0.3287 C   0  0
  -12.9194    7.6532   -0.8267 C   0  0
    1.0048    1.8381    0.0023 H   0  0
   -0.5450    1.8219   -0.8730 H   0  0
   -0.5280    1.8123    0.9069 H   0  0
   -2.4459    1.0381    0.0200 H   0  0
   -2.4284   -3.8722   -0.0087 H   0  0
    0.0476   -3.9026   -0.0194 H   0  0
    4.8130   -4.1278    2.0921 H   0  0
    5.8819   -4.6979   -0.0486 H   0  0
    4.8055   -4.0847   -2.1736 H   0  0
   -5.6209   -0.6556    0.0249 H   0  0
   -4.3466    1.6994    0.9231 H   0  0
   -4.3551    1.7102   -0.8568 H   0  0
   -6.8159    1.4051   -0.8469 H   0  0
   -6.8074    1.3943    0.9330 H   0  0
   -5.8613    3.6863    0.9424 H   0  0
   -5.8698    3.6971   -0.8375 H   0  0
   -8.3305    3.3920   -0.8276 H   0  0
   -8.3220    3.3812    0.9523 H   0  0
   -7.3759    5.6732    0.9617 H   0  0
   -7.3844    5.6840   -0.8182 H   0  0
   -9.4723    5.8872   -2.0066 H   0  0
   -9.8936    4.2979   -1.3236 H   0  0
  -11.9233    5.5430   -2.0363 H   0  0
  -11.9119    5.2751   -0.2767 H   0  0
  -10.9274    8.6628    0.5593 H   0  0
  -11.3429    7.0575    1.2062 H   0  0
   -8.8962    7.4223    1.2758 H   0  0
   -8.8861    7.7234   -0.4789 H   0  0
  -13.4176    7.1316   -0.0096 H   0  0
  -12.9815    8.7290   -0.6626 H   0  0
  -13.4056    7.4008   -1.7691 H   0  0
  -11.0480    7.7293   -1.6362 H   0  0
  1  2  1  0
  1 34  1  0
  1 35  1  0
  1 36  1  0
  2 11  1  0
  2  3  1  0
  3  8  2  0
  3  4  1  0
  4  5  2  0
  4 37  1  0
  5  6  1  0
  5 21  1  0
  6  7  2  0
  7  8  1  0
  7 38  1  0
  8  9  1  0
  9 10  2  0
  9 39  1  0
 10 11  1  0
 10 13  1  0
 11 12  2  0
 13 18  2  0
 13 14  1  0
 14 15  2  0
 14 20  1  0
 15 16  1  0
 15 40  1  0
 16 17  2  0
 16 41  1  0
 17 18  1  0
 17 42  1  0
 18 19  1  0
 21 22  1  0
 21 43  1  0
 22 23  1  0
 22 44  1  0
 22 45  1  0
 23 24  1  0
 23 46  1  0
 23 47  1  0
 24 25  1  0
 24 48  1  0
 24 49  1  0
 25 26  1  0
 25 50  1  0
 25 51  1  0
 26 27  1  0
 26 52  1  0
 26 53  1  0
 27 32  1  0
 27 28  1  0
 28 29  1  0
 28 54  1  0
 28 55  1  0
 29 30  1  0
 29 56  1  0
 29 57  1  0
 30 31  1  0
 30 33  1  0
 30 65  1  0
 31 32  1  0
 31 58  1  0
 31 59  1  0
 32 60  1  0
 32 61  1  0
 33 62  1  0
 33 63  1  0
 33 64  1  0
M  CHG  1  30   1
M  END
> <Name>
CHEMBL108332

$$$$
CHEMBL569064
  SciTegic01042614003D

 59 63  0  0  0  0            999 V2000
    3.3547   -2.8787   -0.5538 C   0  0
    1.9274   -2.8109   -0.5628 O   0  0
    1.3578   -1.9054   -1.4018 C   0  0
    2.1482   -1.1818   -2.2807 C   0  0
    1.5643   -0.2579   -3.1361 C   0  0
    0.1881   -0.0609   -3.1091 C   0  0
   -0.5969   -0.7843   -2.2313 C   0  0
   -0.0165   -1.7093   -1.3824 C   0  0
   -1.0069   -2.6211   -0.2863 Cl  0  0
   -0.5442    1.0946   -4.1779 Cl  0  0
    2.3589    0.4741   -4.0238 N   0  0
    2.4989    1.8371   -3.8612 C   0  0
    2.8654    2.6686   -4.9458 C   0  0
    3.0972    2.1319   -6.2213 C   0  0
    3.4481    2.9504   -7.2493 C   0  0
    3.5824    4.3324   -7.0493 C   0  0
    3.3602    4.8884   -5.8019 C   0  0
    2.9966    4.0616   -4.7292 C   0  0
    2.7751    4.5800   -3.5122 N   0  0
    2.4347    3.8346   -2.4921 C   0  0
    2.2770    2.4449   -2.6163 C   0  0
    1.8977    1.6557   -1.4832 C   0  0
    1.5968    1.0296   -0.5843 N   0  0
    3.9666    5.2055   -8.1852 C   0  0
    4.1902    4.6630   -9.4541 C   0  0
    4.5466    5.5200  -10.4808 C   0  0
    4.6691    6.8731  -10.2210 C   0  0
    4.4522    7.3559   -9.0129 N   0  0
    4.1049    6.5803   -8.0062 C   0  0
    4.7991    4.9847  -11.8667 C   0  0
    3.5442    4.9915  -12.6304 N   0  0
    2.5782    4.0383  -12.0650 C   0  0
    1.2677    4.1207  -12.8521 C   0  0
    1.5312    3.8685  -14.2349 O   0  0
    2.4675    4.7788  -14.8179 C   0  0
    3.7903    4.7031  -14.0508 C   0  0
    3.7092   -3.2048   -1.5316 H   0  0
    3.7638   -1.8937   -0.3290 H   0  0
    3.6799   -3.5892    0.2061 H   0  0
    3.2170   -1.3364   -2.2996 H   0  0
   -1.6656   -0.6300   -2.2110 H   0  0
    2.8117    0.0237   -4.7539 H   0  0
    2.9974    1.0693   -6.3866 H   0  0
    3.6255    2.5322   -8.2291 H   0  0
    3.4654    5.9532   -5.6555 H   0  0
    2.2678    4.3001   -1.5320 H   0  0
    4.0877    3.6022   -9.6287 H   0  0
    4.9471    7.5446  -11.0198 H   0  0
    3.9308    7.0134   -7.0323 H   0  0
    5.5343    5.6124  -12.3703 H   0  0
    5.1776    3.9648  -11.7989 H   0  0
    2.9811    3.0278  -12.1338 H   0  0
    2.3914    4.2860  -11.0201 H   0  0
    0.5680    3.3758  -12.4731 H   0  0
    0.8373    5.1158  -12.7392 H   0  0
    2.6357    4.5098  -15.8608 H   0  0
    2.0721    5.7930  -14.7622 H   0  0
    4.4882    5.4360  -14.4554 H   0  0
    4.2125    3.7032  -14.1513 H   0  0
  1  2  1  0
  1 37  1  0
  1 38  1  0
  1 39  1  0
  2  3  1  0
  3  8  2  0
  3  4  1  0
  4  5  2  0
  4 40  1  0
  5  6  1  0
  5 11  1  0
  6  7  2  0
  6 10  1  0
  7  8  1  0
  7 41  1  0
  8  9  1  0
 11 12  1  0
 11 42  1  0
 12 21  2  0
 12 13  1  0
 13 18  2  0
 13 14  1  0
 14 15  2  0
 14 43  1  0
 15 16  1  0
 15 44  1  0
 16 17  2  0
 16 24  1  0
 17 18  1  0
 17 45  1  0
 18 19  1  0
 19 20  2  0
 20 21  1  0
 20 46  1  0
 21 22  1  0
 22 23  3  0
 24 29  2  0
 24 25  1  0
 25 26  2  0
 25 47  1  0
 26 27  1  0
 26 30  1  0
 27 28  2  0
 27 48  1  0
 28 29  1  0
 29 49  1  0
 30 31  1  0
 30 50  1  0
 30 51  1  0
 31 36  1  0
 31 32  1  0
 32 33  1  0
 32 52  1  0
 32 53  1  0
 33 34  1  0
 33 54  1  0
 33 55  1  0
 34 35  1  0
 35 36  1  0
 35 56  1  0
 35 57  1  0
 36 58  1  0
 36 59  1  0
M  END
> <Name>
CHEMBL569064

$$$$
CHEMBL128356
  SciTegic01042614003D

 36 38  0  0  0  0            999 V2000
   -0.4222    1.4835   -0.2449 C   0  0
   -0.6364    0.0786   -0.3945 O   0  0
   -0.0384   -0.5277   -1.4547 C   0  0
    0.7290    0.2106   -2.3103 C   0  0
    1.3451   -0.4125   -3.4021 C   0  0
    1.1699   -1.8027   -3.6135 C   0  0
    0.3791   -2.5399   -2.7239 C   0  0
   -0.2116   -1.9043   -1.6541 C   0  0
   -0.9746   -2.6183   -0.7860 O   0  0
   -1.1131   -4.0172   -1.0429 C   0  0
    1.7719   -2.3756   -4.6676 N   0  0
    2.5074   -1.6589   -5.4838 C   0  0
    2.6992   -0.3589   -5.3263 N   0  0
    2.1503    0.3058   -4.3179 C   0  0
    2.3586    1.6618   -4.1661 N   0  0
    3.0382    2.3802   -5.1557 C   0  0
    3.0986    1.8900   -6.4536 C   0  0
    3.7702    2.6010   -7.4287 C   0  0
    4.3833    3.8012   -7.1138 C   0  0
    4.3252    4.2927   -5.8217 C   0  0
    3.6493    3.5886   -4.8431 C   0  0
    3.5699    4.2094   -3.2238 Cl  0  0
    5.2274    4.6912   -8.3422 Cl  0  0
    0.6442    1.6783   -0.1305 H   0  0
   -0.7939    2.0037   -1.1277 H   0  0
   -0.9534    1.8401    0.6375 H   0  0
    0.8595    1.2699   -2.1456 H   0  0
    0.2366   -3.6000   -2.8730 H   0  0
   -0.1305   -4.4887   -1.0255 H   0  0
   -1.7453   -4.4664   -0.2771 H   0  0
   -1.5689   -4.1633   -2.0222 H   0  0
    2.9777   -2.1519   -6.3218 H   0  0
    2.0337    2.1167   -3.3734 H   0  0
    2.6211    0.9532   -6.7003 H   0  0
    3.8172    2.2199   -8.4381 H   0  0
    4.8049    5.2293   -5.5786 H   0  0
  1  2  1  0
  1 24  1  0
  1 25  1  0
  1 26  1  0
  2  3  1  0
  3  8  2  0
  3  4  1  0
  4  5  2  0
  4 27  1  0
  5 14  1  0
  5  6  1  0
  6  7  2  0
  6 11  1  0
  7  8  1  0
  7 28  1  0
  8  9  1  0
  9 10  1  0
 10 29  1  0
 10 30  1  0
 10 31  1  0
 11 12  2  0
 12 13  1  0
 12 32  1  0
 13 14  2  0
 14 15  1  0
 15 16  1  0
 15 33  1  0
 16 21  2  0
 16 17  1  0
 17 18  2  0
 17 34  1  0
 18 19  1  0
 18 35  1  0
 19 20  2  0
 19 23  1  0
 20 21  1  0
 20 36  1  0
 21 22  1  0
M  END
> <Name>
CHEMBL128356

$$$$
CHEMBL417208
  SciTegic01042614003D

 68 72  0  0  0  0            999 V2000
    0.3730    1.7986    0.1177 C   0  0
    0.2688    0.3333    0.1030 N   0  0
   -1.1324   -0.0961    0.2128 C   0  0
   -1.2048   -1.6216    0.1139 C   0  0
   -0.3889   -2.2184    1.1806 N   0  0
    1.0122   -1.7890    1.0707 C   0  0
    1.0847   -0.2634    1.1696 C   0  0
   -0.4932   -3.6836    1.1659 C   0  0
    0.1588   -4.2540    2.4270 C   0  0
    0.0502   -5.7801    2.4117 C   0  0
    0.6745   -6.3262    3.6193 N   0  0
    0.6985   -7.6923    3.8274 C   0  0
    0.1515   -8.4877    2.9111 N   0  0
    0.1448   -9.7978    3.0555 C   0  0
    0.7313  -10.3508    4.2064 C   0  0
    0.7571  -11.7408    4.4194 C   0  0
    1.3520  -12.2140    5.5753 C   0  0
    1.9242  -11.2532    6.5189 C   0  0
    1.8734   -9.9521    6.2710 N   0  0
    1.3056   -9.4743    5.1636 C   0  0
    1.2674   -8.1558    4.9237 N   0  0
    2.5097  -11.6965    7.6539 N   0  0
    2.8988  -10.8361    8.5747 C   0  0
    2.4296   -9.5479    8.5513 N   0  0
    2.9609   -8.5942    9.4253 C   0  0
    4.3039   -8.6435    9.7763 C   0  0
    4.8256   -7.6999   10.6392 C   0  0
    4.0125   -6.7067   11.1537 C   0  0
    2.6749   -6.6550   10.8066 C   0  0
    2.1482   -7.5922    9.9397 C   0  0
    4.0217  -11.3419    9.8348 S   0  5
    1.4082  -13.6683    5.8532 C   0  0
    0.3725  -14.2884    6.5529 C   0  0
    0.4308  -15.6446    6.8083 C   0  0
    1.5129  -16.3876    6.3720 C   0  0
    2.5431  -15.7789    5.6782 C   0  0
    2.4943  -14.4246    5.4113 C   0  0
    3.7846  -13.6638    4.5337 Cl  0  0
   -0.9861  -13.3575    7.1018 Cl  0  0
    1.4124    2.0904   -0.0326 H   0  0
   -0.2403    2.2145   -0.6816 H   0  0
    0.0243    2.1780    1.0782 H   0  0
   -1.5372    0.2258    1.1723 H   0  0
   -1.7134    0.3487   -0.5950 H   0  0
   -2.2401   -1.9444    0.2242 H   0  0
   -0.8252   -1.9416   -0.8565 H   0  0
    1.5933   -2.2338    1.8786 H   0  0
    1.4170   -2.1109    0.1112 H   0  0
    2.1199    0.0594    1.0594 H   0  0
    0.7050    0.0565    2.1400 H   0  0
   -1.5437   -3.9729    1.1374 H   0  0
    0.0155   -4.0753    0.2850 H   0  0
    1.2093   -3.9648    2.4555 H   0  0
   -0.3499   -3.8624    3.3079 H   0  0
   -1.0004   -6.0693    2.3832 H   0  0
    0.5589   -6.1717    1.5308 H   0  0
    1.0709   -5.7290    4.2728 H   0  0
   -0.3024  -10.4329    2.3052 H   0  0
    0.3240  -12.4203    3.7003 H   0  0
    1.7291   -9.2982    7.9286 H   0  0
    4.9394   -9.4191    9.3751 H   0  0
    5.8697   -7.7378   10.9129 H   0  0
    4.4229   -5.9699   11.8284 H   0  0
    2.0423   -5.8785   11.2107 H   0  0
    1.1046   -7.5485    9.6652 H   0  0
   -0.3700  -16.1258    7.3501 H   0  0
    1.5537  -17.4478    6.5742 H   0  0
    3.3855  -16.3645    5.3409 H   0  0
  1  2  1  0
  1 40  1  0
  1 41  1  0
  1 42  1  0
  2  7  1  0
  2  3  1  0
  3  4  1  0
  3 43  1  0
  3 44  1  0
  4  5  1  0
  4 45  1  0
  4 46  1  0
  5  6  1  0
  5  8  1  0
  6  7  1  0
  6 47  1  0
  6 48  1  0
  7 49  1  0
  7 50  1  0
  8  9  1  0
  8 51  1  0
  8 52  1  0
  9 10  1  0
  9 53  1  0
  9 54  1  0
 10 11  1  0
 10 55  1  0
 10 56  1  0
 11 12  1  0
 11 57  1  0
 12 21  2  0
 12 13  1  0
 13 14  2  0
 14 15  1  0
 14 58  1  0
 15 20  2  0
 15 16  1  0
 16 17  2  0
 16 59  1  0
 17 18  1  0
 17 32  1  0
 18 19  2  0
 18 22  1  0
 19 20  1  0
 20 21  1  0
 22 23  2  0
 23 24  1  0
 23 31  1  0
 24 25  1  0
 24 60  1  0
 25 30  2  0
 25 26  1  0
 26 27  2  0
 26 61  1  0
 27 28  1  0
 27 62  1  0
 28 29  2  0
 28 63  1  0
 29 30  1  0
 29 64  1  0
 30 65  1  0
 32 37  2  0
 32 33  1  0
 33 34  2  0
 33 39  1  0
 34 35  1  0
 34 66  1  0
 35 36  2  0
 35 67  1  0
 36 37  1  0
 36 68  1  0
 37 38  1  0
M  CHG  1  31  -1
M  END
> <Name>
CHEMBL417208

$$$$
CHEMBL180299
  SciTegic01042614003D

 47 50  0  0  0  0            999 V2000
   -2.0824   -2.9391   -2.6168 C   0  0
   -1.3786   -2.8502   -1.3764 O   0  0
   -1.8430   -1.9534   -0.4662 C   0  0
   -3.0171   -1.2598   -0.7133 C   0  0
   -3.4893   -0.3451    0.2177 C   0  0
   -2.7832   -0.1273    1.3956 C   0  0
   -1.6125   -0.8205    1.6383 C   0  0
   -1.1442   -1.7364    0.7137 C   0  0
    0.3230   -2.6104    1.0256 Cl  0  0
   -3.3721    1.0163    2.5614 Cl  0  0
   -4.6733    0.3567   -0.0287 N   0  0
   -4.6366    1.7197   -0.2354 C   0  0
   -5.7809    2.5249   -0.0133 C   0  0
   -6.9846    1.9623    0.4237 C   0  0
   -8.0856    2.7832    0.6319 C   0  0
   -7.9900    4.1680    0.4044 C   0  0
   -6.8269    4.7256   -0.0203 C   0  0
   -5.6946    3.9205   -0.2389 C   0  0
   -4.5436    4.4649   -0.6559 N   0  0
   -3.4710    3.7455   -0.8686 C   0  0
   -3.4635    2.3562   -0.6672 C   0  0
   -2.2727    1.5968   -0.9036 C   0  0
   -1.3280    0.9943   -1.0911 N   0  0
   -9.3580    2.2014    1.0920 C   0  0
  -10.4245    2.9931    1.2941 C   0  0
  -11.6972    2.4112    1.7542 C   0  0
  -11.8159    1.0348    1.9930 C   0  0
  -13.0261    0.5337    2.4228 C   0  0
  -14.0621    1.3298    2.6093 N   0  0
  -13.9944    2.6305    2.3967 C   0  0
  -12.8224    3.2188    1.9715 C   0  0
   -1.5702   -3.6402   -3.2758 H   0  0
   -3.0985   -3.2887   -2.4338 H   0  0
   -2.1155   -1.9564   -3.0871 H   0  0
   -3.5636   -1.4304   -1.6291 H   0  0
   -1.0649   -0.6501    2.5534 H   0  0
   -5.5204   -0.1151   -0.0542 H   0  0
   -7.0575    0.8989    0.5975 H   0  0
   -8.8531    4.7960    0.5694 H   0  0
   -6.7711    5.7907   -0.1903 H   0  0
   -2.5681    4.2335   -1.2049 H   0  0
   -9.4337    1.1384    1.2669 H   0  0
  -10.3488    4.0562    1.1191 H   0  0
  -10.9725    0.3773    1.8422 H   0  0
  -13.1280   -0.5252    2.6092 H   0  0
  -14.8680    3.2434    2.5627 H   0  0
  -12.7730    4.2846    1.8040 H   0  0
  1  2  1  0
  1 32  1  0
  1 33  1  0
  1 34  1  0
  2  3  1  0
  3  8  2  0
  3  4  1  0
  4  5  2  0
  4 35  1  0
  5  6  1  0
  5 11  1  0
  6  7  2  0
  6 10  1  0
  7  8  1  0
  7 36  1  0
  8  9  1  0
 11 12  1  0
 11 37  1  0
 12 21  2  0
 12 13  1  0
 13 18  2  0
 13 14  1  0
 14 15  2  0
 14 38  1  0
 15 16  1  0
 15 24  1  0
 16 17  2  0
 16 39  1  0
 17 18  1  0
 17 40  1  0
 18 19  1  0
 19 20  2  0
 20 21  1  0
 20 41  1  0
 21 22  1  0
 22 23  3  0
 24 25  2  0
 24 42  1  0
 25 26  1  0
 25 43  1  0
 26 31  2  0
 26 27  1  0
 27 28  2  0
 27 44  1  0
 28 29  1  0
 28 45  1  0
 29 30  2  0
 30 31  1  0
 30 46  1  0
 31 47  1  0
M  END
> <Name>
CHEMBL180299

$$$$
CHEMBL419914
  SciTegic01042614003D

 64 67  0  0  0  0            999 V2000
    0.0021    1.3103   -0.3011 C   0  0
    0.0110   -0.2091   -0.1215 C   0  0
   -1.3508   -0.6756    0.1712 N   0  3
   -2.2101   -0.4422   -0.9972 C   0  0
   -3.6568   -0.7938   -0.6447 C   0  0
   -1.3210   -2.1119    0.4779 C   0  0
   -0.5287   -2.3419    1.7664 C   0  0
   -0.4977   -3.8378    2.0860 C   0  0
    0.2423   -4.0526    3.2894 O   0  0
    0.3662   -5.3376    3.7169 C   0  0
   -0.2084   -6.3689    2.9886 C   0  0
   -0.0830   -7.6740    3.4220 C   0  0
    0.6185   -7.9539    4.5874 C   0  0
    1.1934   -6.9208    5.3160 C   0  0
    1.0719   -5.6168    4.8781 C   0  0
    0.7456   -9.2766    5.0278 N   0  0
    0.8497  -10.3080    4.1053 C   0  0
    0.8480  -11.6227    4.5513 C   0  0
    0.9527  -12.6476    3.6190 C   0  0
    1.0565  -12.3033    2.2530 C   0  0
    1.1653  -13.3200    1.2750 C   0  0
    1.1678  -14.6292    1.6730 C   0  0
    1.0585  -14.9519    3.0975 C   0  0
    0.9560  -13.9666    4.0110 N   0  0
    1.0603  -16.1155    3.4578 O   0  0
    1.2800  -15.7133    0.6694 C   0  0
    0.1311  -16.2546    0.0913 C   0  0
    0.2427  -17.2647   -0.8440 C   0  0
    1.4897  -17.7402   -1.2075 C   0  0
    2.6326  -17.2082   -0.6379 C   0  0
    2.5353  -16.1935    0.2940 C   0  0
    3.9710  -15.5223    1.0023 Cl  0  0
   -1.4350  -15.6601    0.5470 Cl  0  0
    1.0503  -10.9508    1.8908 C   0  0
    0.9435  -10.0182    2.8120 N   0  0
    1.0245    1.6678   -0.4234 H   0  0
   -0.5812    1.5683   -1.1851 H   0  0
   -0.4435    1.7774    0.5772 H   0  0
    0.3679   -0.6811   -1.0370 H   0  0
    0.6711   -0.4734    0.7047 H   0  0
   -2.1516    0.6069   -1.2875 H   0  0
   -1.8755   -1.0674   -1.8250 H   0  0
   -3.7329   -1.8630   -0.4465 H   0  0
   -3.9603   -0.2374    0.2421 H   0  0
   -4.3080   -0.5317   -1.4786 H   0  0
   -2.3399   -2.4769    0.6079 H   0  0
   -0.8446   -2.6488   -0.3423 H   0  0
    0.4901   -1.9769    1.6365 H   0  0
   -1.0052   -1.8050    2.5867 H   0  0
   -1.5166   -4.2028    2.2159 H   0  0
   -0.0213   -4.3748    1.2657 H   0  0
   -0.7542   -6.1510    2.0825 H   0  0
   -0.5308   -8.4768    2.8550 H   0  0
    1.7391   -7.1376    6.2224 H   0  0
    1.5227   -4.8137    5.4421 H   0  0
    0.7610   -9.4721    5.9777 H   0  0
    0.7671  -11.8450    5.6050 H   0  0
    1.2448  -13.0661    0.2283 H   0  0
   -0.6457  -17.6846   -1.2922 H   0  0
    1.5715  -18.5304   -1.9391 H   0  0
    3.6032  -17.5844   -0.9256 H   0  0
    1.1293  -10.6725    0.8503 H   0  0
    0.8844  -14.1889    4.9524 H   0  0
   -1.7165   -0.1699    0.9640 H   0  0
  1  2  1  0
  1 36  1  0
  1 37  1  0
  1 38  1  0
  2  3  1  0
  2 39  1  0
  2 40  1  0
  3  4  1  0
  3  6  1  0
  3 64  1  0
  4  5  1  0
  4 41  1  0
  4 42  1  0
  5 43  1  0
  5 44  1  0
  5 45  1  0
  6  7  1  0
  6 46  1  0
  6 47  1  0
  7  8  1  0
  7 48  1  0
  7 49  1  0
  8  9  1  0
  8 50  1  0
  8 51  1  0
  9 10  1  0
 10 15  2  0
 10 11  1  0
 11 12  2  0
 11 52  1  0
 12 13  1  0
 12 53  1  0
 13 14  2  0
 13 16  1  0
 14 15  1  0
 14 54  1  0
 15 55  1  0
 16 17  1  0
 16 56  1  0
 17 35  2  0
 17 18  1  0
 18 19  2  0
 18 57  1  0
 19 24  1  0
 19 20  1  0
 20 21  1  0
 20 34  2  0
 21 22  2  0
 21 58  1  0
 22 23  1  0
 22 26  1  0
 23 24  1  0
 23 25  2  0
 24 63  1  0
 26 31  2  0
 26 27  1  0
 27 28  2  0
 27 33  1  0
 28 29  1  0
 28 59  1  0
 29 30  2  0
 29 60  1  0
 30 31  1  0
 30 61  1  0
 31 32  1  0
 34 35  1  0
 34 62  1  0
M  CHG  1   3   1
M  END
> <Name>
CHEMBL419914

$$$$
CHEMBL190162
  SciTegic01042614003D

 67 69  0  0  0  0            999 V2000
    2.3073    2.5021    2.2558 C   0  0
    2.0082    1.0247    1.9933 C   0  0
    0.5595    0.8081    2.0168 N   0  0
    0.0592   -0.4259    1.8085 C   0  0
    0.8101   -1.3593    1.6011 O   0  0
   -1.2736   -0.6252    1.8301 N   0  0
   -1.7890   -1.8965    1.6155 C   0  0
   -3.1879   -2.0873    1.6357 C   0  0
   -3.7086   -3.3525    1.4219 C   0  0
   -2.8077   -4.4071    1.1908 C   0  0
   -3.2489   -5.7188    0.9648 C   0  0
   -2.3798   -6.6798    0.7519 N   0  0
   -1.0661   -6.4659    0.7395 C   0  0
   -0.5359   -5.2089    0.9518 C   0  0
   -1.4130   -4.1377    1.1854 C   0  0
   -0.9633   -2.8971    1.3923 N   0  0
   -0.2071   -7.5341    0.5076 N   0  0
    1.2419   -7.3184    0.4902 C   0  0
    1.9518   -8.6457    0.2162 C   0  0
    3.4650   -8.4205    0.1980 C   0  0
    4.1749   -9.7479   -0.0760 C   0  0
    5.6278   -9.5316   -0.0935 N   0  3
    6.0776   -9.1189    1.2427 C   0  0
    7.5630   -8.7560    1.1913 C   0  0
    6.3040  -10.7789   -0.4742 C   0  0
    5.9456  -11.1329   -1.9189 C   0  0
   -4.0936   -0.9403    1.8846 C   0  0
   -4.5731   -0.1819    0.8166 C   0  0
   -5.4170    0.8853    1.0552 C   0  0
   -5.7863    1.2027    2.3498 C   0  0
   -5.3142    0.4547    3.4131 C   0  0
   -4.4743   -0.6185    3.1874 C   0  0
   -3.8887   -1.5606    4.5227 Cl  0  0
   -4.1099   -0.5781   -0.8089 Cl  0  0
    3.3851    2.6632    2.2384 H   0  0
    1.8363    3.1109    1.4841 H   0  0
    1.9134    2.7845    3.2322 H   0  0
    2.4020    0.7422    1.0169 H   0  0
    2.4791    0.4159    2.7650 H   0  0
   -0.0397    1.5528    2.1822 H   0  0
   -1.8727    0.1195    1.9956 H   0  0
   -4.7749   -3.5242    1.4328 H   0  0
   -4.3062   -5.9393    0.9661 H   0  0
    0.5326   -5.0526    0.9380 H   0  0
   -0.5671   -8.4222    0.3573 H   0  0
    1.4934   -6.6034   -0.2932 H   0  0
    1.5626   -6.9273    1.4557 H   0  0
    1.7003   -9.3608    0.9995 H   0  0
    1.6310   -9.0368   -0.7494 H   0  0
    3.7165   -7.7055   -0.5854 H   0  0
    3.7858   -8.0295    1.1635 H   0  0
    3.9234  -10.4629    0.7073 H   0  0
    3.8542  -10.1389   -1.0416 H   0  0
    5.5027   -8.2518    1.5678 H   0  0
    5.9279   -9.9384    1.9456 H   0  0
    7.8712   -8.3494    2.1545 H   0  0
    8.1477   -9.6489    0.9700 H   0  0
    7.7284   -8.0112    0.4128 H   0  0
    7.3828  -10.6480   -0.3891 H   0  0
    5.9823  -11.5832    0.1875 H   0  0
    6.5318  -11.9947   -2.2379 H   0  0
    4.8840  -11.3722   -1.9817 H   0  0
    6.1656  -10.2840   -2.5663 H   0  0
   -5.7890    1.4732    0.2291 H   0  0
   -6.4458    2.0385    2.5311 H   0  0
   -5.6060    0.7079    4.4217 H   0  0
    5.8524   -8.8098   -0.7618 H   0  0
  1  2  1  0
  1 35  1  0
  1 36  1  0
  1 37  1  0
  2  3  1  0
  2 38  1  0
  2 39  1  0
  3  4  1  0
  3 40  1  0
  4  5  2  0
  4  6  1  0
  6  7  1  0
  6 41  1  0
  7 16  2  0
  7  8  1  0
  8  9  2  0
  8 27  1  0
  9 10  1  0
  9 42  1  0
 10 15  2  0
 10 11  1  0
 11 12  2  0
 11 43  1  0
 12 13  1  0
 13 14  2  0
 13 17  1  0
 14 15  1  0
 14 44  1  0
 15 16  1  0
 17 18  1  0
 17 45  1  0
 18 19  1  0
 18 46  1  0
 18 47  1  0
 19 20  1  0
 19 48  1  0
 19 49  1  0
 20 21  1  0
 20 50  1  0
 20 51  1  0
 21 22  1  0
 21 52  1  0
 21 53  1  0
 22 23  1  0
 22 25  1  0
 22 67  1  0
 23 24  1  0
 23 54  1  0
 23 55  1  0
 24 56  1  0
 24 57  1  0
 24 58  1  0
 25 26  1  0
 25 59  1  0
 25 60  1  0
 26 61  1  0
 26 62  1  0
 26 63  1  0
 27 32  2  0
 27 28  1  0
 28 29  2  0
 28 34  1  0
 29 30  1  0
 29 64  1  0
 30 31  2  0
 30 65  1  0
 31 32  1  0
 31 66  1  0
 32 33  1  0
M  CHG  1  22   1
M  END
> <Name>
CHEMBL190162

$$$$
CHEMBL220348
  SciTegic01042614003D

 62 66  0  0  0  0            999 V2000
   -0.7260  -14.9375    0.6087 C   0  0
   -0.2240  -15.0721    1.9827 N   0  3  2  0  0  0
   -1.3313  -15.4417    2.8742 C   0  0
   -0.8053  -15.6004    4.3024 C   0  0
   -0.2010  -14.3349    4.7423 N   0  0
    0.8933  -13.9391    3.8445 C   0  0
    0.3533  -13.7942    2.4200 C   0  0
    0.2661  -14.4295    6.1318 C   0  0
    0.6509  -13.0591    6.6268 C   0  0
   -0.1710  -12.1926    7.2425 C   0  0
    0.6389  -11.0049    7.5362 C   0  0
    1.8817  -11.2791    7.0622 C   0  0
    1.8709  -12.5096    6.5291 O   0  0
    0.1922   -9.7611    8.2111 C   0  0
   -1.1357   -9.6422    8.6469 C   0  0
   -1.5685   -8.5129    9.2676 C   0  0
   -0.6836   -7.4421    9.4820 C   0  0
    0.6585   -7.5545    9.0450 C   0  0
    1.0896   -8.7268    8.4124 C   0  0
    1.5460   -6.4732    9.2633 C   0  0
    1.0421   -5.3341    9.9088 C   0  0
   -0.3036   -5.3103   10.3079 C   0  0
   -1.1017   -6.3252   10.0935 N   0  0
    1.8912   -4.2084   10.1583 C   0  0
    2.5648   -3.3153   10.3562 N   0  0
    2.8623   -6.5377    8.8553 N   0  0
    3.8123   -7.1775    9.6574 C   0  0
    3.4137   -7.8504   10.8045 C   0  0
    4.3576   -8.4832   11.5972 C   0  0
    5.6999   -8.4435   11.2434 C   0  0
    6.0960   -7.7731   10.1008 C   0  0
    5.1564   -7.1453    9.3043 C   0  0
    5.6561   -6.3105    7.8666 Cl  0  0
    6.8822   -9.2361   12.2372 Cl  0  0
    3.9698   -9.1424   12.7211 O   0  0
    2.5648   -9.2463   12.9602 C   0  0
    0.0958  -14.6645   -0.0533 H   0  0
   -1.1545  -15.8857    0.2839 H   0  0
   -1.4918  -14.1626    0.5759 H   0  0
   -2.0919  -14.6613    2.8517 H   0  0
   -1.7672  -16.3835    2.5408 H   0  0
   -1.6295  -15.8601    4.9668 H   0  0
   -0.0545  -16.3901    4.3278 H   0  0
    1.3083  -12.9869    4.1748 H   0  0
    1.6721  -14.7015    3.8624 H   0  0
    1.1663  -13.5145    1.7500 H   0  0
   -0.4160  -13.0222    2.3999 H   0  0
   -0.5317  -14.8308    6.7568 H   0  0
    1.1322  -15.0896    6.1798 H   0  0
   -1.2155  -12.3402    7.4739 H   0  0
    2.7354  -10.6194    7.1102 H   0  0
   -1.8239  -10.4590    8.4867 H   0  0
   -2.5945   -8.4381    9.5963 H   0  0
    2.1130   -8.8217    8.0805 H   0  0
   -0.6899   -4.4326   10.8048 H   0  0
    3.1288   -6.1393    8.0120 H   0  0
    2.3695   -7.8802   11.0787 H   0  0
    7.1405   -7.7433    9.8279 H   0  0
    2.1440   -8.2494   13.0920 H   0  0
    2.0866   -9.7330   12.1102 H   0  0
    2.3921   -9.8355   13.8607 H   0  0
    0.4852  -15.7891    2.0127 H   0  0
  1  2  1  0
  1 37  1  0
  1 38  1  0
  1 39  1  0
  2  7  1  0
  2  3  1  0
  2 62  1  0
  3  4  1  0
  3 40  1  0
  3 41  1  0
  4  5  1  0
  4 42  1  0
  4 43  1  0
  5  6  1  0
  5  8  1  0
  6  7  1  0
  6 44  1  0
  6 45  1  0
  7 46  1  0
  7 47  1  0
  8  9  1  0
  8 48  1  0
  8 49  1  0
  9 13  1  0
  9 10  2  0
 10 11  1  0
 10 50  1  0
 11 12  2  0
 11 14  1  0
 12 13  1  0
 12 51  1  0
 14 19  2  0
 14 15  1  0
 15 16  2  0
 15 52  1  0
 16 17  1  0
 16 53  1  0
 17 23  2  0
 17 18  1  0
 18 19  1  0
 18 20  2  0
 19 54  1  0
 20 21  1  0
 20 26  1  0
 21 22  2  0
 21 24  1  0
 22 23  1  0
 22 55  1  0
 24 25  3  0
 26 27  1  0
 26 56  1  0
 27 32  2  0
 27 28  1  0
 28 29  2  0
 28 57  1  0
 29 30  1  0
 29 35  1  0
 30 31  2  0
 30 34  1  0
 31 32  1  0
 31 58  1  0
 32 33  1  0
 35 36  1  0
 36 59  1  0
 36 60  1  0
 36 61  1  0
M  CHG  1   2   1
M  END
> <Name>
CHEMBL220348

$$$$
CHEMBL362862
  SciTegic01042614003D

 72 76  0  0  0  0            999 V2000
   -0.7833    1.4418   -2.1655 C   0  0
   -0.9200    0.1716   -2.8826 N   0  0
   -2.1285   -0.4780   -2.8888 C   0  0
   -2.2772   -1.7026   -3.5753 C   0  0
   -1.1804   -2.2703   -4.2631 C   0  0
    0.0216   -1.6149   -4.2514 C   0  0
    0.1405   -0.3437   -3.5338 C   0  0
    1.2050    0.2483   -3.5221 O   0  0
    1.1902   -2.1840   -4.9622 C   0  0
    2.0562   -3.0559   -4.3010 C   0  0
    3.1435   -3.5833   -4.9696 C   0  0
    3.3753   -3.2487   -6.2916 C   0  0
    2.5210   -2.3846   -6.9528 C   0  0
    1.4265   -1.8551   -6.2976 C   0  0
    0.3516   -0.7765   -7.1312 Cl  0  0
    1.7677   -3.4762   -2.6416 Cl  0  0
   -3.5298   -2.3343   -3.5573 C   0  0
   -4.5184   -1.7582   -2.8993 N   0  0
   -4.3418   -0.6048   -2.2643 C   0  0
   -3.1788    0.0285   -2.2529 N   0  0
   -5.4108   -0.0453   -1.5908 N   0  0
   -6.6130   -0.7501   -1.4796 C   0  0
   -6.5986   -2.1287   -1.3101 C   0  0
   -7.7880   -2.8219   -1.2006 C   0  0
   -8.9925   -2.1451   -1.2599 C   0  0
   -9.0104   -0.7727   -1.4290 C   0  0
   -7.8245   -0.0726   -1.5325 C   0  0
  -10.2885   -2.9049   -1.1406 C   0  0
  -10.6985   -2.9858    0.3313 C   0  0
  -12.0142   -3.7572    0.4525 C   0  0
  -12.4181   -3.8369    1.9021 C   0  0
  -11.7247   -3.3288    2.7512 O   0  0
  -13.5481   -4.4723    2.2501 O   0  0
  -13.8695   -4.5091    3.6420 C   0  0
  -15.1818   -5.2697    3.8425 C   0  0
  -15.0094   -6.6647    3.4158 N   0  0
  -16.3103   -7.3111    3.1896 C   0  0
  -16.0839   -8.7406    2.6903 C   0  0
  -15.2842   -9.4508    3.6397 O   0  0
  -14.0098   -8.8492    3.8836 C   0  0
  -14.2152   -7.4209    4.3950 C   0  0
    0.2363    1.8118   -2.2729 H   0  0
   -1.4797    2.1703   -2.5808 H   0  0
   -1.0048    1.2884   -1.1094 H   0  0
   -1.2888   -3.2071   -4.7895 H   0  0
    3.8145   -4.2583   -4.4590 H   0  0
    4.2272   -3.6636   -6.8098 H   0  0
    2.7080   -2.1268   -7.9847 H   0  0
   -3.6820   -3.2719   -4.0712 H   0  0
   -5.3271    0.8364   -1.1953 H   0  0
   -5.6583   -2.6580   -1.2645 H   0  0
   -7.7775   -3.8938   -1.0689 H   0  0
   -9.9528   -0.2472   -1.4753 H   0  0
   -7.8391    0.9997   -1.6597 H   0  0
  -11.0650   -2.3900   -1.7063 H   0  0
  -10.1572   -3.9117   -1.5370 H   0  0
   -9.9220   -3.5007    0.8970 H   0  0
  -10.8298   -1.9790    0.7277 H   0  0
  -12.7907   -3.2423   -0.1133 H   0  0
  -11.8830   -4.7640    0.0560 H   0  0
  -13.0707   -5.0132    4.1860 H   0  0
  -13.9784   -3.4914    4.0168 H   0  0
  -15.4595   -5.2437    4.8962 H   0  0
  -15.9670   -4.8024    3.2482 H   0  0
  -16.8714   -7.3365    4.1238 H   0  0
  -16.8710   -6.7492    2.4427 H   0  0
  -17.0446   -9.2426    2.5758 H   0  0
  -15.5699   -8.7133    1.7295 H   0  0
  -13.4705   -9.4298    4.6320 H   0  0
  -13.4355   -8.8251    2.9574 H   0  0
  -13.2466   -6.9390    4.5279 H   0  0
  -14.7428   -7.4480    5.3484 H   0  0
  1  2  1  0
  1 42  1  0
  1 43  1  0
  1 44  1  0
  2  7  1  0
  2  3  1  0
  3 20  2  0
  3  4  1  0
  4  5  1  0
  4 17  2  0
  5  6  2  0
  5 45  1  0
  6  7  1  0
  6  9  1  0
  7  8  2  0
  9 14  2  0
  9 10  1  0
 10 11  2  0
 10 16  1  0
 11 12  1  0
 11 46  1  0
 12 13  2  0
 12 47  1  0
 13 14  1  0
 13 48  1  0
 14 15  1  0
 17 18  1  0
 17 49  1  0
 18 19  2  0
 19 20  1  0
 19 21  1  0
 21 22  1  0
 21 50  1  0
 22 27  2  0
 22 23  1  0
 23 24  2  0
 23 51  1  0
 24 25  1  0
 24 52  1  0
 25 26  2  0
 25 28  1  0
 26 27  1  0
 26 53  1  0
 27 54  1  0
 28 29  1  0
 28 55  1  0
 28 56  1  0
 29 30  1  0
 29 57  1  0
 29 58  1  0
 30 31  1  0
 30 59  1  0
 30 60  1  0
 31 32  2  0
 31 33  1  0
 33 34  1  0
 34 35  1  0
 34 61  1  0
 34 62  1  0
 35 36  1  0
 35 63  1  0
 35 64  1  0
 36 41  1  0
 36 37  1  0
 37 38  1  0
 37 65  1  0
 37 66  1  0
 38 39  1  0
 38 67  1  0
 38 68  1  0
 39 40  1  0
 40 41  1  0
 40 69  1  0
 40 70  1  0
 41 71  1  0
 41 72  1  0
M  END
> <Name>
CHEMBL362862

$$$$
