TK_mct
  -ISIS-            3D

 18 20  0  0  0  0  0  0  0  0  0 V2000
   -3.8372   -0.8344   -2.2512 O   0  0  0  0  0
   -0.5403   -2.9522   -2.5389 O   0  0  0  0  0
    3.6205   -0.3493   -1.2421 O   0  0  0  0  0
    3.6214    2.7578    1.9728 O   0  0  0  0  0
    1.6263    0.4089   -0.5045 N   0  0  0  0  0
    3.6567    1.1992    0.3479 N   0  0  0  0  0
   -1.4187   -0.6846   -2.3032 C   0  0  0  0  0
   -1.0219   -1.9961   -1.5794 C   0  0  0  0  0
    0.0990   -1.5570   -0.6113 C   0  0  0  0  0
    0.8786   -0.4821   -1.4067 C   0  0  0  0  0
   -0.1931    0.2660   -2.2398 C   0  0  0  0  0
   -0.6641   -0.3067   -3.5949 C   0  0  0  0  0
   -2.7389    0.0309   -1.9224 C   0  0  0  0  0
    2.9860    0.3864   -0.5009 C   0  0  0  0  0
    3.0216    2.0268    1.2011 C   0  0  0  0  0
    1.5490    2.0363    1.1940 C   0  0  0  0  0
    0.9304    1.2219    0.3305 C   0  0  0  0  0
    0.7740    2.9364    2.1276 C   0  0  0  0  0
  1 13  1  0  0  0
  2  8  1  0  0  0
  3 14  2  0  0  0
  4 15  2  0  0  0
  5 10  1  0  0  0
  5 14  1  0  0  0
  5 17  1  0  0  0
  6 14  1  0  0  0
  6 15  1  0  0  0
  7  8  1  0  0  0
  7 11  1  0  0  0
  7 12  1  0  0  0
  7 13  1  0  0  0
  8  9  1  0  0  0
  9 10  1  0  0  0
 10 11  1  0  0  0
 11 12  1  0  0  0
 15 16  1  0  0  0
 16 17  2  0  0  0
 16 18  1  0  0  0
M  END
