TK_hpt
  -ISIS-            3D

 13 13  0  0  0  0  0  0  0  0  0 V2000
    3.1815   -1.8650    1.8660 O   0  0  0  0  0
    1.4368   -1.2615    0.4321 C   0  0  0  0  0
    0.4912   -2.2809    1.0308 C   0  0  0  0  0
    1.0783   -0.4448   -0.5729 C   0  0  0  0  0
    3.2223    0.6028   -0.5727 C   0  0  0  0  0
    1.9647    0.4652   -1.0504 N   0  0  0  0  0
    2.8108   -1.1327    0.9620 C   0  0  0  0  0
    3.6294   -0.2028    0.4301 N   0  0  0  0  0
    3.9796    1.4407   -1.0393 O   0  0  0  0  0
   -3.3050    1.8291   -0.7493 O   0  0  0  0  0
   -0.2911   -0.4604   -1.2292 C   0  0  0  0  0
   -1.1513    0.7039   -0.6703 C   0  0  0  0  0
   -2.5636    0.7306   -1.3082 C   0  0  0  0  0
  1  7  2  0  0  0
  2  3  1  0  0  0
  2  4  2  0  0  0
  2  7  1  0  0  0
  4  6  1  0  0  0
  4 11  1  0  0  0
  5  6  1  0  0  0
  5  8  1  0  0  0
  5  9  2  0  0  0
  7  8  1  0  0  0
 10 13  1  0  0  0
 11 12  1  0  0  0
 12 13  1  0  0  0
M  END
