TK_hmtt
  -ISIS-            3D

 21 22  0  0  0  0  0  0  0  0  0 V2000
   -2.1859    3.2972   -1.5710 O   0  0  0  0  0
   -1.6846    1.2436   -0.5620 C   0  0  0  0  0
   -3.0994    1.0998   -0.0369 C   0  0  0  0  0
   -0.7205    0.3270   -0.3468 C   0  0  0  0  0
    0.8325    1.5979   -1.6479 C   0  0  0  0  0
    0.4898    0.5088   -0.9232 N   0  0  0  0  0
   -1.3422    2.4384   -1.3657 C   0  0  0  0  0
   -0.0932    2.5556   -1.8543 N   0  0  0  0  0
    1.9564    1.7134   -2.1133 O   0  0  0  0  0
    0.6210   -0.0706    2.4520 C   0  0  0  0  0
    3.7581    0.4637    0.8907 O   0  0  0  0  0
    1.2149   -3.2061    0.7708 O   0  0  0  0  0
    1.7567    0.6188    1.8530 N   0  0  0  0  0
    2.7092   -0.0805    1.2025 C   0  0  0  0  0
   -0.4700    0.9664    2.8422 C   0  0  0  0  0
    0.0587    1.7968    3.8916 O   0  0  0  0  0
    0.1134   -1.2963    1.6250 C   0  0  0  0  0
    2.4952   -1.3771    0.8933 N   0  0  0  0  0
    1.3209   -2.0236    1.0615 C   0  0  0  0  0
   -0.9078   -0.9328    0.4885 C   0  0  0  0  0
   -0.5716   -2.3288    2.5849 C   0  0  0  0  0
  1  7  2  0  0  0
  2  3  1  0  0  0
  2  4  2  0  0  0
  2  7  1  0  0  0
  4  6  1  0  0  0
  4 20  1  0  0  0
  5  6  1  0  0  0
  5  8  1  0  0  0
  5  9  2  0  0  0
  7  8  1  0  0  0
 10 13  1  0  0  0
 10 15  1  0  0  0
 10 17  1  0  0  0
 11 14  2  0  0  0
 12 19  2  0  0  0
 13 14  1  0  0  0
 14 18  1  0  0  0
 15 16  1  0  0  0
 17 19  1  0  0  0
 17 20  1  0  0  0
 17 21  1  0  0  0
 18 19  1  0  0  0
M  END
