TK_dhbt
  -ISIS-            3D

 15 15  0  0  0  0  0  0  0  0  0 V2000
    2.0520    0.3626    1.2640 N   0  0  0  0  0
    4.1316   -0.4182    1.5409 O   0  0  0  0  0
    3.0887    1.5813   -2.3198 O   0  0  0  0  0
    3.6585    0.5671   -0.4046 N   0  0  0  0  0
    3.3142    0.1466    0.8298 C   0  0  0  0  0
    2.7745    1.1958   -1.2045 C   0  0  0  0  0
    1.3984    1.4203   -0.7127 C   0  0  0  0  0
    0.3930    2.1226   -1.6019 C   0  0  0  0  0
    1.0975    0.9811    0.5217 C   0  0  0  0  0
   -0.2740    1.1392    1.1574 C   0  0  0  0  0
   -1.2022   -0.0868    0.9013 C   0  0  0  0  0
   -2.6047    0.1676    1.5229 C   0  0  0  0  0
   -0.5911   -1.4049    1.4536 C   0  0  0  0  0
   -3.5046   -0.8981    1.1712 O   0  0  0  0  0
   -1.4821   -2.5063    1.2041 O   0  0  0  0  0
  1  5  1  0  0  0
  1  9  1  0  0  0
  2  5  2  0  0  0
  3  6  2  0  0  0
  4  5  1  0  0  0
  4  6  1  0  0  0
  6  7  1  0  0  0
  7  8  1  0  0  0
  7  9  2  0  0  0
  9 10  1  0  0  0
 10 11  1  0  0  0
 11 12  1  0  0  0
 11 13  1  0  0  0
 12 14  1  0  0  0
 13 15  1  0  0  0
M  END
