TK_ganciclovir
  -ISIS-            3D

 18 19  0  0  0  0  0  0  0  0  0 V2000
    3.4381    0.3063   -2.5261 N   0  0  0  0  0
    2.2213    0.1581   -3.1400 C   0  0  0  0  0
    1.2136    1.4010   -1.3974 C   0  0  0  0  0
    0.7552    2.5360    0.3263 C   0  0  0  0  0
   -3.5467   -0.7474   -0.3735 C   0  0  0  0  0
   -2.5992   -1.7593   -0.7568 O   0  0  0  0  0
   -4.1223    1.7246   -0.6329 C   0  0  0  0  0
   -3.9527    2.8610   -1.4982 O   0  0  0  0  0
   -3.1302    0.5955   -1.0267 C   0  0  0  0  0
   -1.7759    0.8377   -0.5856 O   0  0  0  0  0
   -1.1580    2.0141   -1.1375 C   0  0  0  0  0
    0.2415    1.9807   -0.7357 N   0  0  0  0  0
    1.1627    0.6615   -2.6322 N   0  0  0  0  0
    2.1634   -0.5124   -4.2606 N   0  0  0  0  0
    3.6041    0.9824   -1.3571 C   0  0  0  0  0
    4.6748    1.1263   -0.7887 O   0  0  0  0  0
    2.3848    1.5563   -0.7846 C   0  0  0  0  0
    1.9988    2.3276    0.3639 N   0  0  0  0  0
  1  2  1  0  0  0
  1 15  1  0  0  0
  2 13  2  0  0  0
  2 14  1  0  0  0
  3 12  1  0  0  0
  3 13  1  0  0  0
  3 17  2  0  0  0
  4 18  2  0  0  0
  4 12  1  0  0  0
  5  6  1  0  0  0
  5  9  1  0  0  0
  7  8  1  0  0  0
  7  9  1  0  0  0
  9 10  1  0  0  0
 10 11  1  0  0  0
 11 12  1  0  0  0
 15 16  2  0  0  0
 15 17  1  0  0  0
 17 18  1  0  0  0
M  END
